
  -ISIS-  11102212342D

 22 23  0  0  0  0  0  0  0  0999 V2000
    2.9667   -6.9042    0.0000 C   0  0  0  0  0  0  0  0  0  0  0  0
    2.1667   -7.1542    0.0000 S   0  0  3  0  0  0  0  0  0  0  0  0
    3.2167   -6.1292    0.0000 C   0  0  0  0  0  0  0  0  0  0  0  0
    3.6417   -7.4000    0.0000 O   0  0  0  0  0  0  0  0  0  0  0  0
    4.0417   -6.1167    0.0000 N   0  0  0  0  0  0  0  0  0  0  0  0
    4.3042   -6.9042    0.0000 C   0  0  0  0  0  0  0  0  0  0  0  0
    2.7250   -5.4667    0.0000 C   0  0  0  0  0  0  0  0  0  0  0  0
    1.3792   -7.4125    0.0000 N   0  0  3  0  0  0  0  0  0  0  0  0
    2.2292   -4.7917    0.0000 N   0  0  0  0  0  0  0  0  0  0  0  0
    2.4167   -7.9542    0.0000 O   0  0  0  0  0  0  0  0  0  0  0  0
    1.9250   -6.3667    0.0000 O   0  0  0  0  0  0  0  0  0  0  0  0
    5.0792   -7.1875    0.0000 C   0  0  0  0  0  0  0  0  0  0  0  0
    5.2167   -8.0000    0.0000 C   0  0  0  0  0  0  0  0  0  0  0  0
    5.7042   -6.6542    0.0000 C   0  0  0  0  0  0  0  0  0  0  0  0
    1.1917   -8.2125    0.0000 C   0  0  0  0  0  0  0  0  0  0  0  0
    5.9917   -8.2792    0.0000 C   0  0  0  0  0  0  0  0  0  0  0  0
    6.4792   -6.9292    0.0000 C   0  0  0  0  0  0  0  0  0  0  0  0
    6.6292   -7.7417    0.0000 C   0  0  0  0  0  0  0  0  0  0  0  0
    0.2167   -9.2542    0.0000 O   0  0  0  0  0  0  0  0  0  0  0  0
    0.7667   -6.8417    0.0000 C   0  0  0  0  0  0  0  0  0  0  0  0
    0.4042   -8.4500    0.0000 C   0  0  0  0  0  0  0  0  0  0  0  0
    7.4250   -8.0167    0.0000 C   0  0  0  0  0  0  0  0  0  0  0  0
  2  1  1  0  0  0  0
  3  1  2  0  0  0  0
  4  1  1  0  0  0  0
  5  3  1  0  0  0  0
  6  4  1  0  0  0  0
  7  3  1  0  0  0  0
  8  2  1  0  0  0  0
  9  7  3  0  0  0  0
 10  2  2  0  0  0  0
 11  2  2  0  0  0  0
 12  6  1  0  0  0  0
 13 12  2  0  0  0  0
 14 12  1  0  0  0  0
 15  8  1  0  0  0  0
 16 13  1  0  0  0  0
 17 14  2  0  0  0  0
 18 17  1  0  0  0  0
 19 21  1  0  0  0  0
 20  8  1  0  0  0  0
 21 15  1  0  0  0  0
 22 18  1  0  0  0  0
  5  6  2  0  0  0  0
 18 16  2  0  0  0  0
M  END
>  <Code> (P9959766)
P9959766

>  <Number of H-Donors> (P9959766)
1

>  <Number of H-Acceptors> (P9959766)
5

>  <Number of Rotatable bonds> (P9959766)
5

>  <CLogP> (P9959766)
1.100000000000000e+000

>  <Number of Rings> (P9959766)
2

>  <PSA> (P9959766)
1.158000000000000e+002

$$$$

  -ISIS-  11102212342D

 13 14  0  0  0  0  0  0  0  0999 V2000
    5.8542   -9.9042    0.0000 C   0  0  0  0  0  0  0  0  0  0  0  0
    5.3667   -9.2417    0.0000 N   0  0  0  0  0  0  0  0  0  0  0  0
    4.5792  -10.3167    0.0000 N   0  0  3  0  0  0  0  0  0  0  0  0
    4.5792   -9.4917    0.0000 C   0  0  0  0  0  0  0  0  0  0  0  0
    5.3667  -10.5750    0.0000 C   0  0  0  0  0  0  0  0  0  0  0  0
    6.6792   -9.9042    0.0000 C   0  0  0  0  0  0  0  0  0  0  0  0
    7.0917   -9.1917    0.0000 O   0  0  0  0  0  0  0  0  0  0  0  0
    7.0917  -10.6167    0.0000 O   0  0  0  0  0  0  0  0  0  0  0  0
    3.8000  -10.5750    0.0000 C   0  0  0  0  0  0  0  0  0  0  0  0
    3.8000   -9.2375    0.0000 C   0  0  0  0  0  0  0  0  0  0  0  0
    3.3167   -9.9042    0.0000 C   0  0  0  0  0  0  0  0  0  0  0  0
    7.9167  -10.6167    0.0000 C   0  0  0  0  0  0  0  0  0  0  0  0
    8.3292  -11.3375    0.0000 C   0  0  0  0  0  0  0  0  0  0  0  0
  2  1  1  0  0  0  0
  3  5  1  0  0  0  0
  4  2  2  0  0  0  0
  5  1  2  0  0  0  0
  6  1  1  0  0  0  0
  7  6  2  0  0  0  0
  8  6  1  0  0  0  0
  9  3  1  0  0  0  0
 10  4  1  0  0  0  0
 11  9  1  0  0  0  0
 12  8  1  0  0  0  0
 13 12  1  0  0  0  0
  3  4  1  0  0  0  0
 11 10  1  0  0  0  0
M  END
>  <Code> (P9958109)
P9958109

>  <Number of H-Donors> (P9958109)
0

>  <Number of H-Acceptors> (P9958109)
3

>  <Number of Rotatable bonds> (P9958109)
3

>  <CLogP> (P9958109)
1.100000000000000e+000

>  <Number of Rings> (P9958109)
2

>  <PSA> (P9958109)
4.410000000000000e+001

$$$$

  -ISIS-  11102212342D

 18 19  0  0  0  0  0  0  0  0999 V2000
    4.7542   -2.1417    0.0000 N   0  0  0  0  0  0  0  0  0  0  0  0
    4.0375   -0.9125    0.0000 N   0  0  0  0  0  0  0  0  0  0  0  0
    4.0417   -1.7292    0.0000 C   0  0  0  0  0  0  0  0  0  0  0  0
    4.7417   -0.5000    0.0000 C   0  0  0  0  0  0  0  0  0  0  0  0
    5.4667   -1.7375    0.0000 C   0  0  0  0  0  0  0  0  0  0  0  0
    5.4667   -0.9125    0.0000 C   0  0  0  0  0  0  0  0  0  0  0  0
   -0.9583   -3.8042    0.0000 N   0  0  0  0  0  0  0  0  0  0  0  0
   -0.2458   -3.3917    0.0000 C   0  0  0  0  0  0  0  0  0  0  0  0
    3.3250   -2.1417    0.0000 S   0  0  0  0  0  0  0  0  0  0  0  0
    0.4667   -2.9792    0.0000 C   0  0  0  0  0  0  0  0  0  0  0  0
    4.7417    0.3250    0.0000 O   0  0  0  0  0  0  0  0  0  0  0  0
    6.1792   -2.1500    0.0000 O   0  0  0  0  0  0  0  0  0  0  0  0
    2.6125   -1.7375    0.0000 C   0  0  0  0  0  0  0  0  0  0  0  0
    1.9000   -2.1542    0.0000 C   0  0  0  0  0  0  0  0  0  0  0  0
    1.1792   -3.3917    0.0000 C   0  0  0  0  0  0  0  0  0  0  0  0
    0.4667   -2.1542    0.0000 C   0  0  0  0  0  0  0  0  0  0  0  0
    1.9000   -2.9792    0.0000 C   0  0  0  0  0  0  0  0  0  0  0  0
    1.1792   -1.7417    0.0000 C   0  0  0  0  0  0  0  0  0  0  0  0
  2  3  1  0  0  0  0
  3  1  2  0  0  0  0
  4  6  1  0  0  0  0
  5  1  1  0  0  0  0
  6  5  2  0  0  0  0
  7  8  3  0  0  0  0
  8 10  1  0  0  0  0
  9  3  1  0  0  0  0
 10 16  2  0  0  0  0
 11  4  1  0  0  0  0
 12  5  1  0  0  0  0
 13  9  1  0  0  0  0
 14 13  1  0  0  0  0
 15 17  2  0  0  0  0
 16 18  1  0  0  0  0
 17 14  1  0  0  0  0
 18 14  2  0  0  0  0
  2  4  2  0  0  0  0
 15 10  1  0  0  0  0
M  END
>  <Code> (P970443)
P970443

>  <Number of H-Donors> (P970443)
2

>  <Number of H-Acceptors> (P970443)
6

>  <Number of Rotatable bonds> (P970443)
3

>  <CLogP> (P970443)
3.200000000000000e+000

>  <Number of Rings> (P970443)
2

>  <PSA> (P970443)
1.153000000000000e+002

$$$$

  -ISIS-  11102212342D

 19 21  0  0  0  0  0  0  0  0999 V2000
    7.4417   -1.6417    0.0000 N   0  0  3  0  0  0  0  0  0  0  0  0
    8.2667   -1.6500    0.0000 C   0  0  0  0  0  0  0  0  0  0  0  0
    7.1917   -2.4167    0.0000 N   0  0  0  0  0  0  0  0  0  0  0  0
    7.8500   -2.9000    0.0000 N   0  0  0  0  0  0  0  0  0  0  0  0
    8.5125   -2.4167    0.0000 N   0  0  0  0  0  0  0  0  0  0  0  0
    6.7292   -1.2417    0.0000 C   0  0  0  0  0  0  0  0  0  0  0  0
    6.0167   -1.6542    0.0000 N   0  0  0  0  0  0  0  0  0  0  0  0
    8.8417   -1.0625    0.0000 C   0  0  0  0  0  0  0  0  0  0  0  0
    6.7292   -0.4125    0.0000 C   0  0  0  0  0  0  0  0  0  0  0  0
    9.6417   -1.2750    0.0000 C   0  0  0  0  0  0  0  0  0  0  0  0
    8.6292   -0.2667    0.0000 C   0  0  0  0  0  0  0  0  0  0  0  0
    5.3042   -1.2417    0.0000 C   0  0  0  0  0  0  0  0  0  0  0  0
    5.3042   -0.4125    0.0000 C   0  0  0  0  0  0  0  0  0  0  0  0
   10.0125    0.1083    0.0000 C   0  0  0  0  0  0  0  0  0  0  0  0
    6.0167   -0.0042    0.0000 C   0  0  0  0  0  0  0  0  0  0  0  0
    9.2042    0.3208    0.0000 C   0  0  0  0  0  0  0  0  0  0  0  0
   10.2292   -0.6875    0.0000 C   0  0  0  0  0  0  0  0  0  0  0  0
    4.5875    0.0083    0.0000 Br  0  0  0  0  0  0  0  0  0  0  0  0
   10.5917    0.6958    0.0000 F   0  0  0  0  0  0  0  0  0  0  0  0
  2  1  1  0  0  0  0
  3  1  1  0  0  0  0
  4  3  2  0  0  0  0
  5  2  2  0  0  0  0
  6  1  1  0  0  0  0
  7  6  2  0  0  0  0
  8  2  1  0  0  0  0
  9  6  1  0  0  0  0
 10  8  2  0  0  0  0
 11  8  1  0  0  0  0
 12  7  1  0  0  0  0
 13 15  1  0  0  0  0
 14 16  1  0  0  0  0
 15  9  2  0  0  0  0
 16 11  2  0  0  0  0
 17 10  1  0  0  0  0
 18 13  1  0  0  0  0
 19 14  1  0  0  0  0
  4  5  1  0  0  0  0
 12 13  2  0  0  0  0
 17 14  2  0  0  0  0
M  END
>  <Code> (P9080671)
P9080671

>  <Number of H-Donors> (P9080671)
0

>  <Number of H-Acceptors> (P9080671)
4

>  <Number of Rotatable bonds> (P9080671)
2

>  <CLogP> (P9080671)
3.000000000000000e+000

>  <Number of Rings> (P9080671)
3

>  <PSA> (P9080671)
5.649999999999999e+001

$$$$

  -ISIS-  11102212342D

 35 38  0  0  0  0  0  0  0  0999 V2000
    4.3792    0.3875    0.0000 C   0  0  0  0  0  0  0  0  0  0  0  0
    5.2042    0.3833    0.0000 N   0  0  3  0  0  0  0  0  0  0  0  0
    4.1292   -0.4000    0.0000 C   0  0  0  0  0  0  0  0  0  0  0  0
    5.4542   -0.4042    0.0000 C   0  0  0  0  0  0  0  0  0  0  0  0
    4.7917   -0.8792    0.0000 S   0  0  0  0  0  0  0  0  0  0  0  0
    5.7542    0.9958    0.0000 C   0  0  0  0  0  0  0  0  0  0  0  0
    4.1667    1.1875    0.0000 C   0  0  0  0  0  0  0  0  0  0  0  0
    6.2542   -0.5792    0.0000 N   0  0  0  0  0  0  0  0  0  0  0  0
    3.3042   -0.4000    0.0000 C   0  0  0  0  0  0  0  0  0  0  0  0
    6.5667    0.8125    0.0000 C   0  0  0  0  0  0  0  0  0  0  0  0
    6.8167    0.0250    0.0000 C   0  0  0  0  0  0  0  0  0  0  0  0
    3.4542    1.6000    0.0000 N   0  0  0  0  0  0  0  0  0  0  0  0
    2.8917   -1.1125    0.0000 N   0  0  0  0  0  0  0  0  0  0  0  0
   -0.4208   -1.1000    0.0000 C   0  0  0  0  0  0  0  0  0  0  0  0
    5.5042    1.7833    0.0000 O   0  0  0  0  0  0  0  0  0  0  0  0
    4.5792    1.9083    0.0000 O   0  0  0  0  0  0  0  0  0  0  0  0
    0.4042   -1.1042    0.0000 C   0  0  0  0  0  0  0  0  0  0  0  0
    2.8792    0.3208    0.0000 O   0  0  0  0  0  0  0  0  0  0  0  0
   -0.8208   -0.3875    0.0000 O   0  0  0  0  0  0  0  0  0  0  0  0
    2.0667   -1.1125    0.0000 C   0  0  0  0  0  0  0  0  0  0  0  0
    2.6292    1.6083    0.0000 C   0  0  0  0  0  0  0  0  0  0  0  0
    0.8292   -1.8167    0.0000 C   0  0  0  0  0  0  0  0  0  0  0  0
    0.8292   -0.3875    0.0000 C   0  0  0  0  0  0  0  0  0  0  0  0
   -0.8333   -1.8167    0.0000 O   0  0  0  0  0  0  0  0  0  0  0  0
    1.6542   -1.8167    0.0000 C   0  0  0  0  0  0  0  0  0  0  0  0
    1.6542   -0.3917    0.0000 C   0  0  0  0  0  0  0  0  0  0  0  0
    0.9792    1.6208    0.0000 C   0  0  0  0  0  0  0  0  0  0  0  0
    2.2167    0.8958    0.0000 C   0  0  0  0  0  0  0  0  0  0  0  0
    2.2167    2.3333    0.0000 C   0  0  0  0  0  0  0  0  0  0  0  0
    1.3917    0.8958    0.0000 C   0  0  0  0  0  0  0  0  0  0  0  0
    1.3917    2.3333    0.0000 C   0  0  0  0  0  0  0  0  0  0  0  0
    7.6250   -0.1500    0.0000 C   0  0  0  0  0  0  0  0  0  0  0  0
    0.1542    1.6208    0.0000 C   0  0  0  0  0  0  0  0  0  0  0  0
   -1.6583   -1.8125    0.0000 C   0  0  0  0  0  0  0  0  0  0  0  0
   -0.2583    2.3375    0.0000 C   0  0  0  0  0  0  0  0  0  0  0  0
  2  1  1  0  0  0  0
  3  1  2  0  0  0  0
  4  2  1  0  0  0  0
  5  3  1  0  0  0  0
  6  2  1  0  0  0  0
  7  1  1  0  0  0  0
  8  4  2  0  0  0  0
  9  3  1  0  0  0  0
 10  6  1  0  0  0  0
 11 10  2  0  0  0  0
 12  7  1  0  0  0  0
 13  9  1  0  0  0  0
 14 17  1  0  0  0  0
 15  6  2  0  0  0  0
 16  7  2  0  0  0  0
 17 23  2  0  0  0  0
 18  9  2  0  0  0  0
 19 14  2  0  0  0  0
 20 13  1  0  0  0  0
 21 12  1  0  0  0  0
 22 25  2  0  0  0  0
 23 26  1  0  0  0  0
 24 14  1  0  0  0  0
 25 20  1  0  0  0  0
 26 20  2  0  0  0  0
 27 31  2  0  0  0  0
 28 21  1  0  0  0  0
 29 21  2  0  0  0  0
 30 28  2  0  0  0  0
 31 29  1  0  0  0  0
 32 11  1  0  0  0  0
 33 27  1  0  0  0  0
 34 24  1  0  0  0  0
 35 33  1  0  0  0  0
  5  4  1  0  0  0  0
  8 11  1  0  0  0  0
 27 30  1  0  0  0  0
 22 17  1  0  0  0  0
M  END
>  <Code> (P7715530150)
P7715530150

>  <Number of H-Donors> (P7715530150)
2

>  <Number of H-Acceptors> (P7715530150)
7

>  <Number of Rotatable bonds> (P7715530150)
7

>  <CLogP> (P7715530150)
3.200000000000000e+000

>  <Number of Rings> (P7715530150)
4

>  <PSA> (P7715530150)
1.425000000000000e+002

$$$$

  -ISIS-  11102212342D

 27 30  0  0  0  0  0  0  0  0999 V2000
    4.8250   -1.3792    0.0000 C   0  0  1  0  0  0  0  0  0  0  0  0
    2.6875   -2.6042    0.0000 C   0  0  1  0  0  0  0  0  0  0  0  0
    2.6875   -3.4292    0.0000 C   0  0  0  0  0  0  0  0  0  0  0  0
    4.8250   -2.2000    0.0000 C   0  0  2  0  0  0  0  0  0  0  0  0
    3.4042   -2.2000    0.0000 C   0  0  2  0  0  0  0  0  0  0  0  0
    4.1292   -2.6042    0.0000 C   0  0  1  0  0  0  0  0  0  0  0  0
    5.6125   -1.1292    0.0000 C   0  0  1  0  0  0  0  0  0  0  0  0
    3.4042   -3.8375    0.0000 C   0  0  0  0  0  0  0  0  0  0  0  0
    4.1042   -0.9667    0.0000 C   0  0  0  0  0  0  0  0  0  0  0  0
    5.8917   -0.3042    0.0000 C   0  0  0  0  0  0  0  0  0  0  0  0
    4.1292   -3.4292    0.0000 C   0  0  0  0  0  0  0  0  0  0  0  0
    3.3750   -1.3792    0.0000 C   0  0  0  0  0  0  0  0  0  0  0  0
    5.6125   -2.4500    0.0000 C   0  0  0  0  0  0  0  0  0  0  0  0
    1.9875   -2.2000    0.0000 C   0  0  0  0  0  0  0  0  0  0  0  0
    6.0792   -1.7500    0.0000 C   0  0  0  0  0  0  0  0  0  0  0  0
    1.9875   -3.8375    0.0000 C   0  0  0  0  0  0  0  0  0  0  0  0
    5.3250    0.2875    0.0000 O   0  0  0  0  0  0  0  0  0  0  0  0
    4.8250   -0.5250    0.0000 C   0  0  0  0  0  0  0  0  0  0  0  0
    1.2667   -2.6042    0.0000 C   0  0  0  0  0  0  0  0  0  0  0  0
    6.6792   -0.1167    0.0000 O   0  0  0  0  0  0  0  0  0  0  0  0
    1.2667   -3.4292    0.0000 C   0  0  2  0  0  0  0  0  0  0  0  0
    2.6875   -1.7792    0.0000 C   0  0  0  0  0  0  0  0  0  0  0  0
    0.5417   -3.8667    0.0000 O   0  0  0  0  0  0  0  0  0  0  0  0
    7.2500   -0.7167    0.0000 C   0  0  0  0  0  0  0  0  0  0  0  0
    3.4042   -3.0250    0.0000 H   0  0  0  0  0  0  0  0  0  0  0  0
    4.8167   -3.0250    0.0000 H   0  0  0  0  0  0  0  0  0  0  0  0
    4.1292   -1.7792    0.0000 H   0  0  0  0  0  0  0  0  0  0  0  0
  2  5  1  0  0  0  0
  3  2  1  0  0  0  0
  4  1  1  0  0  0  0
  5 12  1  0  0  0  0
  6  4  1  0  0  0  0
  7  1  1  0  0  0  0
  8 11  1  0  0  0  0
  9  1  1  0  0  0  0
  7 10  1  1  0  0  0
 11  6  1  0  0  0  0
 12  9  1  0  0  0  0
 13  4  1  0  0  0  0
 14  2  1  0  0  0  0
 15  7  1  0  0  0  0
 16  3  1  0  0  0  0
 17 10  2  0  0  0  0
  1 18  1  1  0  0  0
 19 14  1  0  0  0  0
 20 10  1  0  0  0  0
 21 19  1  0  0  0  0
  2 22  1  1  0  0  0
 21 23  1  1  0  0  0
 24 20  1  0  0  0  0
  5 25  1  6  0  0  0
  4 26  1  6  0  0  0
  6 27  1  1  0  0  0
 13 15  1  0  0  0  0
  5  6  1  0  0  0  0
  3  8  2  0  0  0  0
 21 16  1  0  0  0  0
M  END
>  <Code> (P7570662)
P7570662

>  <Number of H-Donors> (P7570662)
1

>  <Number of H-Acceptors> (P7570662)
3

>  <Number of Rotatable bonds> (P7570662)
2

>  <CLogP> (P7570662)
3.800000000000000e+000

>  <Number of Rings> (P7570662)
4

>  <PSA> (P7570662)
4.649999999999999e+001

$$$$

  -ISIS-  11102212342D

 29 32  0  0  0  0  0  0  0  0999 V2000
    4.8542   -0.7292    0.0000 C   0  0  1  0  0  0  0  0  0  0  0  0
    2.7292   -1.9917    0.0000 C   0  0  1  0  0  0  0  0  0  0  0  0
    2.7292   -2.8167    0.0000 C   0  0  0  0  0  0  0  0  0  0  0  0
    4.8542   -1.5542    0.0000 C   0  0  2  0  0  0  0  0  0  0  0  0
    3.4417   -1.5917    0.0000 C   0  0  2  0  0  0  0  0  0  0  0  0
    4.1792   -1.9917    0.0000 C   0  0  1  0  0  0  0  0  0  0  0  0
    5.6292   -0.4792    0.0000 C   0  0  1  0  0  0  0  0  0  0  0  0
    3.4417   -3.2500    0.0000 C   0  0  0  0  0  0  0  0  0  0  0  0
    5.9042    0.3125    0.0000 C   0  0  0  0  0  0  0  0  0  0  0  0
    4.1500   -0.3542    0.0000 C   0  0  0  0  0  0  0  0  0  0  0  0
    4.1792   -2.8542    0.0000 C   0  0  0  0  0  0  0  0  0  0  0  0
    3.4417   -0.7542    0.0000 C   0  0  0  0  0  0  0  0  0  0  0  0
    5.6542   -1.8042    0.0000 C   0  0  0  0  0  0  0  0  0  0  0  0
    2.0292   -1.5917    0.0000 C   0  0  0  0  0  0  0  0  0  0  0  0
    6.1167   -1.1292    0.0000 C   0  0  0  0  0  0  0  0  0  0  0  0
    2.0292   -3.2500    0.0000 C   0  0  0  0  0  0  0  0  0  0  0  0
    0.6042   -4.0917    0.0000 C   0  0  0  0  0  0  0  0  0  0  0  0
    0.6042   -3.2792    0.0000 O   0  0  0  0  0  0  0  0  0  0  0  0
    5.3500    0.9375    0.0000 O   0  0  0  0  0  0  0  0  0  0  0  0
    1.3125   -2.8542    0.0000 C   0  0  1  0  0  0  0  0  0  0  0  0
   -0.1000   -4.5167    0.0000 O   0  0  0  0  0  0  0  0  0  0  0  0
    1.3125   -1.9917    0.0000 C   0  0  0  0  0  0  0  0  0  0  0  0
    6.7292    0.4708    0.0000 O   0  0  0  0  0  0  0  0  0  0  0  0
    4.8292    0.1083    0.0000 C   0  0  0  0  0  0  0  0  0  0  0  0
    2.7667   -1.1625    0.0000 C   0  0  0  0  0  0  0  0  0  0  0  0
    1.3125   -4.5167    0.0000 C   0  0  0  0  0  0  0  0  0  0  0  0
    4.1792   -1.1667    0.0000 H   0  0  0  0  0  0  0  0  0  0  0  0
    3.4417   -2.4167    0.0000 H   0  0  0  0  0  0  0  0  0  0  0  0
    4.8500   -2.3792    0.0000 H   0  0  0  0  0  0  0  0  0  0  0  0
  2  5  1  0  0  0  0
  3  2  1  0  0  0  0
  4  1  1  0  0  0  0
  5 12  1  0  0  0  0
  6  4  1  0  0  0  0
  7  1  1  0  0  0  0
  8 11  1  0  0  0  0
  7  9  1  1  0  0  0
 10  1  1  0  0  0  0
 11  6  1  0  0  0  0
 12 10  1  0  0  0  0
 13  4  1  0  0  0  0
 14  2  1  0  0  0  0
 15  7  1  0  0  0  0
 16  3  1  0  0  0  0
 17 18  1  0  0  0  0
 20 18  1  1  0  0  0
 19  9  2  0  0  0  0
 20 22  1  0  0  0  0
 21 17  2  0  0  0  0
 22 14  1  0  0  0  0
 23  9  1  0  0  0  0
  1 24  1  1  0  0  0
  2 25  1  1  0  0  0
 26 17  1  0  0  0  0
  6 27  1  1  0  0  0
  5 28  1  6  0  0  0
  4 29  1  6  0  0  0
 15 13  1  0  0  0  0
  6  5  1  0  0  0  0
  8  3  2  0  0  0  0
 20 16  1  0  0  0  0
M  END
>  <Code> (P7570661)
P7570661

>  <Number of H-Donors> (P7570661)
1

>  <Number of H-Acceptors> (P7570661)
4

>  <Number of Rotatable bonds> (P7570661)
3

>  <CLogP> (P7570661)
3.900000000000000e+000

>  <Number of Rings> (P7570661)
4

>  <PSA> (P7570661)
6.359999999999999e+001

$$$$

  -ISIS-  11102212342D

 34 38  0  0  0  0  0  0  0  0999 V2000
    4.5875   -0.9125    0.0000 C   0  0  1  0  0  0  0  0  0  0  0  0
    2.4292   -2.1500    0.0000 C   0  0  1  0  0  0  0  0  0  0  0  0
    2.4292   -3.0042    0.0000 C   0  0  0  0  0  0  0  0  0  0  0  0
    4.5875   -1.7250    0.0000 C   0  0  2  0  0  0  0  0  0  0  0  0
    3.1542   -1.7542    0.0000 C   0  0  2  0  0  0  0  0  0  0  0  0
    3.8875   -2.1500    0.0000 C   0  0  1  0  0  0  0  0  0  0  0  0
    5.6792    0.0875    0.0000 C   0  0  1  0  0  0  0  0  0  0  0  0
    5.3667   -0.6667    0.0000 C   0  0  2  0  0  0  0  0  0  0  0  0
    6.1292    0.7958    0.0000 O   0  0  0  0  0  0  0  0  0  0  0  0
    3.1542   -3.3917    0.0000 C   0  0  0  0  0  0  0  0  0  0  0  0
    3.8625   -0.5167    0.0000 C   0  0  0  0  0  0  0  0  0  0  0  0
    6.9417    0.5625    0.0000 C   0  0  0  0  0  0  0  0  0  0  0  0
    3.8875   -3.0042    0.0000 C   0  0  0  0  0  0  0  0  0  0  0  0
    3.1292   -0.9375    0.0000 C   0  0  0  0  0  0  0  0  0  0  0  0
    5.3667   -1.9667    0.0000 C   0  0  0  0  0  0  0  0  0  0  0  0
    1.7292   -1.7542    0.0000 C   0  0  0  0  0  0  0  0  0  0  0  0
    5.8625   -1.3042    0.0000 C   0  0  0  0  0  0  0  0  0  0  0  0
    1.7292   -3.3917    0.0000 C   0  0  0  0  0  0  0  0  0  0  0  0
    0.2792   -4.2417    0.0000 C   0  0  0  0  0  0  0  0  0  0  0  0
    6.1875   -0.5417    0.0000 C   0  0  0  0  0  0  0  0  0  0  0  0
    0.2792   -3.4250    0.0000 O   0  0  0  0  0  0  0  0  0  0  0  0
    7.5792    1.0958    0.0000 O   0  0  0  0  0  0  0  0  0  0  0  0
    1.0042   -3.0042    0.0000 C   0  0  1  0  0  0  0  0  0  0  0  0
   -0.4458   -4.6750    0.0000 O   0  0  0  0  0  0  0  0  0  0  0  0
    6.9417   -0.2792    0.0000 C   0  0  0  0  0  0  0  0  0  0  0  0
    1.0042   -2.1500    0.0000 C   0  0  0  0  0  0  0  0  0  0  0  0
    4.3042   -0.0625    0.0000 C   0  0  0  0  0  0  0  0  0  0  0  0
    2.4292   -1.3292    0.0000 C   0  0  0  0  0  0  0  0  0  0  0  0
    4.9417    0.4833    0.0000 C   0  0  0  0  0  0  0  0  0  0  0  0
    0.9792   -4.6750    0.0000 C   0  0  0  0  0  0  0  0  0  0  0  0
    3.1500   -2.5875    0.0000 H   0  0  0  0  0  0  0  0  0  0  0  0
    4.5792   -2.5542    0.0000 H   0  0  0  0  0  0  0  0  0  0  0  0
    3.6750   -1.3500    0.0000 H   0  0  0  0  0  0  0  0  0  0  0  0
    4.7875   -0.0792    0.0000 H   0  0  0  0  0  0  0  0  0  0  0  0
  2  5  1  0  0  0  0
  3  2  1  0  0  0  0
  4  1  1  0  0  0  0
  5 14  1  0  0  0  0
  6  4  1  0  0  0  0
  7  8  1  0  0  0  0
  8  1  1  0  0  0  0
  9  7  1  0  0  0  0
 10 13  1  0  0  0  0
 11  1  1  0  0  0  0
 12  9  1  0  0  0  0
 13  6  1  0  0  0  0
 14 11  1  0  0  0  0
 15  4  1  0  0  0  0
 16  2  1  0  0  0  0
 17  8  1  0  0  0  0
 18  3  1  0  0  0  0
 19 21  1  0  0  0  0
  7 20  1  6  0  0  0
 23 21  1  1  0  0  0
 22 12  2  0  0  0  0
 23 26  1  0  0  0  0
 24 19  2  0  0  0  0
 25 20  1  0  0  0  0
 26 16  1  0  0  0  0
  1 27  1  1  0  0  0
  2 28  1  1  0  0  0
  7 29  1  1  0  0  0
 30 19  1  0  0  0  0
  5 31  1  6  0  0  0
  4 32  1  6  0  0  0
  6 33  1  1  0  0  0
  8 34  1  1  0  0  0
 17 15  1  0  0  0  0
  5  6  1  0  0  0  0
 12 25  1  0  0  0  0
 10  3  2  0  0  0  0
 23 18  1  0  0  0  0
M  END
>  <Code> (P7570660)
P7570660

>  <Number of H-Donors> (P7570660)
0

>  <Number of H-Acceptors> (P7570660)
4

>  <Number of Rotatable bonds> (P7570660)
3

>  <CLogP> (P7570660)
4.700000000000000e+000

>  <Number of Rings> (P7570660)
5

>  <PSA> (P7570660)
5.259999999999999e+001

$$$$

  -ISIS-  11102212342D

 29 33  0  0  0  0  0  0  0  0999 V2000
    2.6167   -2.2792    0.0000 C   0  0  1  0  0  0  0  0  0  0  0  0
    4.0417   -1.4667    0.0000 C   0  0  1  0  0  0  0  0  0  0  0  0
    3.3375   -2.7000    0.0000 C   0  0  2  0  0  0  0  0  0  0  0  0
    1.9000   -2.7000    0.0000 C   0  0  2  0  0  0  0  0  0  0  0  0
    2.6167   -1.4667    0.0000 C   0  0  0  0  0  0  0  0  0  0  0  0
    4.0417   -2.2792    0.0000 C   0  0  2  0  0  0  0  0  0  0  0  0
    4.8167   -1.1917    0.0000 C   0  0  1  0  0  0  0  0  0  0  0  0
    3.3375   -1.0417    0.0000 C   0  0  0  0  0  0  0  0  0  0  0  0
    2.2917   -3.0292    0.0000 O   0  0  0  0  0  0  0  0  0  0  0  0
    1.9000   -3.5417    0.0000 C   0  0  1  0  0  0  0  0  0  0  0  0
    5.1042   -0.4167    0.0000 C   0  0  1  0  0  0  0  0  0  0  0  0
    5.9292   -0.2625    0.0000 C   0  0  0  0  0  0  0  0  0  0  0  0
    4.8167   -2.5500    0.0000 C   0  0  0  0  0  0  0  0  0  0  0  0
    3.3375   -3.5417    0.0000 C   0  0  0  0  0  0  0  0  0  0  0  0
    5.2792   -1.8542    0.0000 C   0  0  0  0  0  0  0  0  0  0  0  0
    1.1792   -2.2792    0.0000 C   0  0  0  0  0  0  0  0  0  0  0  0
    0.4750   -3.5417    0.0000 C   0  0  1  0  0  0  0  0  0  0  0  0
    1.8792   -1.0167    0.0000 O   0  0  0  0  0  0  0  0  0  0  0  0
    1.1792   -3.9417    0.0000 C   0  0  0  0  0  0  0  0  0  0  0  0
    2.6167   -3.9417    0.0000 C   0  0  0  0  0  0  0  0  0  0  0  0
    6.4375   -0.9125    0.0000 O   0  0  0  0  0  0  0  0  0  0  0  0
    4.0417   -0.6167    0.0000 C   0  0  0  0  0  0  0  0  0  0  0  0
    0.4750   -2.7000    0.0000 C   0  0  0  0  0  0  0  0  0  0  0  0
    6.2167    0.5083    0.0000 O   0  0  0  0  0  0  0  0  0  0  0  0
    1.9042   -1.9125    0.0000 C   0  0  0  0  0  0  0  0  0  0  0  0
    4.5667    0.2250    0.0000 C   0  0  0  0  0  0  0  0  0  0  0  0
    1.9042   -4.2125    0.0000 H   0  0  0  0  0  0  0  0  0  0  0  0
    3.3375   -1.8417    0.0000 H   0  0  0  0  0  0  0  0  0  0  0  0
    4.0375   -3.1000    0.0000 H   0  0  0  0  0  0  0  0  0  0  0  0
  2  8  1  0  0  0  0
  3  1  1  0  0  0  0
  4  1  1  0  0  0  0
  5  1  1  0  0  0  0
  6  3  1  0  0  0  0
  7  2  1  0  0  0  0
  8  5  1  0  0  0  0
  1  9  1  6  0  0  0
 10  4  1  0  0  0  0
  7 11  1  1  0  0  0
 12 11  1  0  0  0  0
 13  6  1  0  0  0  0
 14  3  1  0  0  0  0
 15 13  1  0  0  0  0
 16  4  1  0  0  0  0
 17  9  1  6  0  0  0
 18  5  2  0  0  0  0
 19 17  1  0  0  0  0
 20 10  1  0  0  0  0
 21 12  2  0  0  0  0
  2 22  1  1  0  0  0
 23 17  1  0  0  0  0
 24 12  1  0  0  0  0
  4 25  1  1  0  0  0
 11 26  1  6  0  0  0
 10 27  1  1  0  0  0
  3 28  1  1  0  0  0
  6 29  1  6  0  0  0
  2  6  1  0  0  0  0
 16 23  1  0  0  0  0
 10 19  1  0  0  0  0
 20 14  1  0  0  0  0
 15  7  1  0  0  0  0
M  END
>  <Code> (P7570655)
P7570655

>  <Number of H-Donors> (P7570655)
1

>  <Number of H-Acceptors> (P7570655)
4

>  <Number of Rotatable bonds> (P7570655)
2

>  <CLogP> (P7570655)
3.400000000000000e+000

>  <Number of Rings> (P7570655)
5

>  <PSA> (P7570655)
6.359999999999999e+001

$$$$

  -ISIS-  11102212342D

 34 37  0  0  0  0  0  0  0  0999 V2000
    4.0625   -1.8042    0.0000 C   0  0  2  0  0  0  0  0  0  0  0  0
    2.6417   -2.6417    0.0000 C   0  0  2  0  0  0  0  0  0  0  0  0
    4.0875   -2.6167    0.0000 C   0  0  2  0  0  0  0  0  0  0  0  0
    1.9417   -3.0417    0.0000 C   0  0  2  0  0  0  0  0  0  0  0  0
    3.3667   -3.0417    0.0000 C   0  0  2  0  0  0  0  0  0  0  0  0
    3.3500   -1.4042    0.0000 C   0  0  2  0  0  0  0  0  0  0  0  0
    2.6417   -1.8292    0.0000 C   0  0  0  0  0  0  0  0  0  0  0  0
    4.8625   -1.5667    0.0000 C   0  0  2  0  0  0  0  0  0  0  0  0
    1.9417   -3.8792    0.0000 C   0  0  2  0  0  0  0  0  0  0  0  0
    4.8625   -2.8750    0.0000 C   0  0  0  0  0  0  0  0  0  0  0  0
    1.2167   -2.6417    0.0000 C   0  0  0  0  0  0  0  0  0  0  0  0
    5.3292   -2.2000    0.0000 C   0  0  0  0  0  0  0  0  0  0  0  0
    3.3792   -3.8792    0.0000 C   0  0  0  0  0  0  0  0  0  0  0  0
    6.9875    0.3458    0.0000 C   0  0  0  0  0  0  0  0  0  0  0  0
    2.6417   -4.3000    0.0000 C   0  0  0  0  0  0  0  0  0  0  0  0
    1.2167   -4.3000    0.0000 C   0  0  0  0  0  0  0  0  0  0  0  0
    7.5500   -0.2625    0.0000 O   0  0  0  0  0  0  0  0  0  0  0  0
    5.1167   -0.7542    0.0000 C   0  0  1  0  0  0  0  0  0  0  0  0
    5.9292   -0.5917    0.0000 C   0  0  0  0  0  0  0  0  0  0  0  0
    3.3500   -0.5917    0.0000 O   0  0  0  0  0  0  0  0  0  0  0  0
    6.1917    0.1833    0.0000 C   0  0  0  0  0  0  0  0  0  0  0  0
    4.0500   -0.9792    0.0000 C   0  0  0  0  0  0  0  0  0  0  0  0
    0.4917   -3.0417    0.0000 C   0  0  0  0  0  0  0  0  0  0  0  0
    0.4917   -3.8792    0.0000 C   0  0  1  0  0  0  0  0  0  0  0  0
    1.9417   -2.2250    0.0000 C   0  0  0  0  0  0  0  0  0  0  0  0
    7.2417    1.1208    0.0000 O   0  0  0  0  0  0  0  0  0  0  0  0
   -0.2333   -4.3000    0.0000 O   0  0  0  0  0  0  0  0  0  0  0  0
    4.5792   -0.1417    0.0000 C   0  0  0  0  0  0  0  0  0  0  0  0
    2.6167    0.0458    0.0000 C   0  0  0  0  0  0  0  0  0  0  0  0
    8.0625    1.2833    0.0000 C   0  0  0  0  0  0  0  0  0  0  0  0
    1.9417   -4.7167    0.0000 H   0  0  0  0  0  0  0  0  0  0  0  0
    2.6417   -3.4750    0.0000 H   0  0  0  0  0  0  0  0  0  0  0  0
    4.0875   -3.4417    0.0000 H   0  0  0  0  0  0  0  0  0  0  0  0
    3.3625   -2.2167    0.0000 H   0  0  0  0  0  0  0  0  0  0  0  0
  2  7  1  0  0  0  0
  3  1  1  0  0  0  0
  4  2  1  0  0  0  0
  5  3  1  0  0  0  0
  6  1  1  0  0  0  0
  7  6  1  0  0  0  0
  8  1  1  0  0  0  0
  9  4  1  0  0  0  0
 10  3  1  0  0  0  0
 11  4  1  0  0  0  0
 12  8  1  0  0  0  0
 13  5  1  0  0  0  0
 14 21  1  0  0  0  0
 15 13  1  0  0  0  0
 16  9  1  0  0  0  0
 17 14  2  0  0  0  0
  8 18  1  1  0  0  0
 19 18  1  0  0  0  0
  6 20  1  6  0  0  0
 21 19  1  0  0  0  0
  1 22  1  1  0  0  0
 23 11  1  0  0  0  0
 24 23  1  0  0  0  0
  4 25  1  1  0  0  0
 26 14  1  0  0  0  0
 24 27  1  6  0  0  0
 18 28  1  6  0  0  0
 29 20  1  0  0  0  0
 30 26  1  0  0  0  0
  9 31  1  1  0  0  0
  2 32  1  6  0  0  0
  3 33  1  6  0  0  0
  5 34  1  1  0  0  0
 12 10  1  0  0  0  0
  2  5  1  0  0  0  0
 15  9  1  0  0  0  0
 16 24  1  0  0  0  0
M  END
>  <Code> (P7570645)
P7570645

>  <Number of H-Donors> (P7570645)
1

>  <Number of H-Acceptors> (P7570645)
4

>  <Number of Rotatable bonds> (P7570645)
6

>  <CLogP> (P7570645)
4.700000000000000e+000

>  <Number of Rings> (P7570645)
4

>  <PSA> (P7570645)
5.580000000000000e+001

$$$$

  -ISIS-  11102212342D

 25 28  0  0  0  0  0  0  0  0999 V2000
    4.9750   -3.7750    0.0000 C   0  0  1  0  0  0  0  0  0  0  0  0
    4.9750   -4.6042    0.0000 C   0  0  2  0  0  0  0  0  0  0  0  0
    3.5417   -4.5792    0.0000 C   0  0  1  0  0  0  0  0  0  0  0  0
    4.2500   -5.0042    0.0000 C   0  0  1  0  0  0  0  0  0  0  0  0
    2.8292   -5.0042    0.0000 C   0  0  1  0  0  0  0  0  0  0  0  0
    5.7542   -3.5250    0.0000 C   0  0  2  0  0  0  0  0  0  0  0  0
    4.2667   -3.3500    0.0000 C   0  0  0  0  0  0  0  0  0  0  0  0
    3.5542   -3.7500    0.0000 C   0  0  0  0  0  0  0  0  0  0  0  0
    5.7542   -4.8542    0.0000 C   0  0  0  0  0  0  0  0  0  0  0  0
    4.2500   -5.8417    0.0000 C   0  0  0  0  0  0  0  0  0  0  0  0
    2.8292   -5.8125    0.0000 C   0  0  1  0  0  0  0  0  0  0  0  0
    6.2292   -4.1792    0.0000 C   0  0  0  0  0  0  0  0  0  0  0  0
    3.5417   -6.2417    0.0000 C   0  0  0  0  0  0  0  0  0  0  0  0
    6.0792   -2.7375    0.0000 O   0  0  0  0  0  0  0  0  0  0  0  0
    5.0042   -2.9417    0.0000 C   0  0  0  0  0  0  0  0  0  0  0  0
    2.8292   -4.1792    0.0000 C   0  0  0  0  0  0  0  0  0  0  0  0
    2.1000   -4.5792    0.0000 C   0  0  0  0  0  0  0  0  0  0  0  0
    6.5542   -3.2667    0.0000 C   0  0  0  0  0  0  0  0  0  0  0  0
    2.1000   -6.2417    0.0000 C   0  0  0  0  0  0  0  0  0  0  0  0
    1.4000   -5.0042    0.0000 C   0  0  0  0  0  0  0  0  0  0  0  0
    1.4000   -5.8125    0.0000 C   0  0  0  0  0  0  0  0  0  0  0  0
    4.2417   -4.1792    0.0000 H   0  0  0  0  0  0  0  0  0  0  0  0
    2.8292   -6.6375    0.0000 H   0  0  0  0  0  0  0  0  0  0  0  0
    3.5292   -5.4042    0.0000 H   0  0  0  0  0  0  0  0  0  0  0  0
    4.9750   -5.4292    0.0000 H   0  0  0  0  0  0  0  0  0  0  0  0
  2  1  1  0  0  0  0
  3  8  1  0  0  0  0
  4  2  1  0  0  0  0
  5  3  1  0  0  0  0
  6  1  1  0  0  0  0
  7  1  1  0  0  0  0
  8  7  1  0  0  0  0
  9  2  1  0  0  0  0
 10  4  1  0  0  0  0
 11  5  1  0  0  0  0
 12  6  1  0  0  0  0
 13 10  1  0  0  0  0
  6 14  1  1  0  0  0
  1 15  1  1  0  0  0
  5 16  1  1  0  0  0
 17  5  1  0  0  0  0
  6 18  1  6  0  0  0
 19 11  1  0  0  0  0
 20 17  1  0  0  0  0
 21 20  1  0  0  0  0
  4 22  1  1  0  0  0
 11 23  1  6  0  0  0
  3 24  1  6  0  0  0
  2 25  1  6  0  0  0
 12  9  1  0  0  0  0
  3  4  1  0  0  0  0
 13 11  1  0  0  0  0
 19 21  1  0  0  0  0
M  END
>  <Code> (P7570383)
P7570383

>  <Number of H-Donors> (P7570383)
1

>  <Number of H-Acceptors> (P7570383)
1

>  <Number of Rotatable bonds> (P7570383)
0

>  <CLogP> (P7570383)
4.900000000000000e+000

>  <Number of Rings> (P7570383)
4

>  <PSA> (P7570383)
2.020000000000000e+001

$$$$

  -ISIS-  11102212342D

 24 27  0  0  0  0  0  0  0  0999 V2000
    4.5667   -3.3625    0.0000 C   0  0  2  0  0  0  0  0  0  0  0  0
    4.5500   -4.1792    0.0000 C   0  0  2  0  0  0  0  0  0  0  0  0
    3.1250   -4.1667    0.0000 C   0  0  1  0  0  0  0  0  0  0  0  0
    3.8375   -4.5875    0.0000 C   0  0  1  0  0  0  0  0  0  0  0  0
    2.4167   -4.5750    0.0000 C   0  0  1  0  0  0  0  0  0  0  0  0
    3.8542   -2.9375    0.0000 C   0  0  0  0  0  0  0  0  0  0  0  0
    3.1375   -3.3417    0.0000 C   0  0  0  0  0  0  0  0  0  0  0  0
    5.2542   -4.6042    0.0000 C   0  0  0  0  0  0  0  0  0  0  0  0
    3.8375   -5.4125    0.0000 C   0  0  0  0  0  0  0  0  0  0  0  0
    5.9792   -3.3625    0.0000 C   0  0  2  0  0  0  0  0  0  0  0  0
    2.4125   -5.4042    0.0000 C   0  0  1  0  0  0  0  0  0  0  0  0
    3.1250   -5.8167    0.0000 C   0  0  0  0  0  0  0  0  0  0  0  0
    5.9667   -4.2042    0.0000 C   0  0  0  0  0  0  0  0  0  0  0  0
    4.5667   -2.5292    0.0000 C   0  0  0  0  0  0  0  0  0  0  0  0
    2.4125   -3.7542    0.0000 C   0  0  0  0  0  0  0  0  0  0  0  0
    1.7042   -4.1625    0.0000 C   0  0  0  0  0  0  0  0  0  0  0  0
    6.7167   -2.8375    0.0000 O   0  0  0  0  0  0  0  0  0  0  0  0
    1.7000   -5.8125    0.0000 C   0  0  0  0  0  0  0  0  0  0  0  0
    0.9792   -4.5750    0.0000 C   0  0  0  0  0  0  0  0  0  0  0  0
    0.9792   -5.3917    0.0000 C   0  0  0  0  0  0  0  0  0  0  0  0
    2.4042   -6.2292    0.0000 H   0  0  0  0  0  0  0  0  0  0  0  0
    3.8292   -3.7625    0.0000 H   0  0  0  0  0  0  0  0  0  0  0  0
    3.1250   -5.0167    0.0000 H   0  0  0  0  0  0  0  0  0  0  0  0
    4.5417   -5.0000    0.0000 H   0  0  0  0  0  0  0  0  0  0  0  0
  2  1  1  0  0  0  0
  3  7  1  0  0  0  0
  4  2  1  0  0  0  0
  5  3  1  0  0  0  0
  6  1  1  0  0  0  0
  7  6  1  0  0  0  0
  8  2  1  0  0  0  0
  9  4  1  0  0  0  0
 10  1  1  0  0  0  0
 11  5  1  0  0  0  0
 12  9  1  0  0  0  0
 13 10  1  0  0  0  0
  1 14  1  1  0  0  0
  5 15  1  1  0  0  0
 16  5  1  0  0  0  0
 10 17  1  1  0  0  0
 18 11  1  0  0  0  0
 19 16  1  0  0  0  0
 20 19  1  0  0  0  0
 11 21  1  6  0  0  0
  4 22  1  1  0  0  0
  3 23  1  6  0  0  0
  2 24  1  6  0  0  0
  8 13  1  0  0  0  0
  4  3  1  0  0  0  0
 11 12  1  0  0  0  0
 20 18  1  0  0  0  0
M  END
>  <Code> (P7569515)
P7569515

>  <Number of H-Donors> (P7569515)
1

>  <Number of H-Acceptors> (P7569515)
1

>  <Number of Rotatable bonds> (P7569515)
0

>  <CLogP> (P7569515)
4.700000000000000e+000

>  <Number of Rings> (P7569515)
4

>  <PSA> (P7569515)
2.020000000000000e+001

$$$$

  -ISIS-  11102212342D

 28 31  0  0  0  0  0  0  0  0999 V2000
    4.8417   -6.2125    0.0000 C   0  0  0  0  0  0  0  0  0  0  0  0
    4.8542   -5.3792    0.0000 N   0  0  3  0  0  0  0  0  0  0  0  0
    3.4167   -5.3667    0.0000 C   0  0  0  0  0  0  0  0  0  0  0  0
    5.6375   -6.4792    0.0000 N   0  0  0  0  0  0  0  0  0  0  0  0
    3.4000   -6.2000    0.0000 C   0  0  0  0  0  0  0  0  0  0  0  0
    4.1417   -4.9500    0.0000 C   0  0  3  0  0  0  0  0  0  0  0  0
    5.6542   -5.1375    0.0000 N   0  0  0  0  0  0  0  0  0  0  0  0
    4.1167   -6.6250    0.0000 N   0  0  0  0  0  0  0  0  0  0  0  0
    6.1417   -5.8125    0.0000 C   0  0  0  0  0  0  0  0  0  0  0  0
    2.7042   -4.9417    0.0000 C   0  0  0  0  0  0  0  0  0  0  0  0
    4.1625   -1.9625    0.0000 C   0  0  3  0  0  0  0  0  0  0  0  0
    2.6667   -6.6000    0.0000 C   0  0  0  0  0  0  0  0  0  0  0  0
    1.9625   -6.1750    0.0000 C   0  0  3  0  0  0  0  0  0  0  0  0
    4.1292   -4.1917    0.0000 C   0  0  0  0  0  0  0  0  0  0  0  0
    1.9792   -5.3375    0.0000 C   0  0  0  0  0  0  0  0  0  0  0  0
    4.1542   -2.7125    0.0000 C   0  0  0  0  0  0  0  0  0  0  0  0
    2.7167   -4.1167    0.0000 O   0  0  0  0  0  0  0  0  0  0  0  0
    6.9750   -5.8292    0.0000 S   0  0  0  0  0  0  0  0  0  0  0  0
    4.7875   -3.8375    0.0000 C   0  0  0  0  0  0  0  0  0  0  0  0
    3.4917   -3.8167    0.0000 C   0  0  0  0  0  0  0  0  0  0  0  0
    3.5000   -3.0750    0.0000 C   0  0  0  0  0  0  0  0  0  0  0  0
    4.7917   -3.1042    0.0000 C   0  0  0  0  0  0  0  0  0  0  0  0
    3.4167   -1.9500    0.0000 F   0  0  0  0  0  0  0  0  0  0  0  0
    4.1750   -1.2167    0.0000 F   0  0  0  0  0  0  0  0  0  0  0  0
    4.9125   -1.9750    0.0000 F   0  0  0  0  0  0  0  0  0  0  0  0
    1.9417   -6.9917    0.0000 C   0  0  0  0  0  0  0  0  0  0  0  0
    1.2500   -5.7375    0.0000 C   0  0  0  0  0  0  0  0  0  0  0  0
    7.4042   -5.1167    0.0000 C   0  0  0  0  0  0  0  0  0  0  0  0
  2  1  1  0  0  0  0
  3  5  2  0  0  0  0
  4  1  2  0  0  0  0
  5  8  1  0  0  0  0
  6  2  1  0  0  0  0
  7  2  1  0  0  0  0
  8  1  1  0  0  0  0
  9  4  1  0  0  0  0
 10  3  1  0  0  0  0
 11 16  1  0  0  0  0
 12  5  1  0  0  0  0
 13 12  1  0  0  0  0
 14  6  1  0  0  0  0
 15 13  1  0  0  0  0
 16 21  1  0  0  0  0
 17 10  2  0  0  0  0
 18  9  1  0  0  0  0
 19 14  2  0  0  0  0
 20 14  1  0  0  0  0
 21 20  2  0  0  0  0
 22 19  1  0  0  0  0
 23 11  1  0  0  0  0
 24 11  1  0  0  0  0
 25 11  1  0  0  0  0
 26 13  1  0  0  0  0
 27 13  1  0  0  0  0
 28 18  1  0  0  0  0
  7  9  2  0  0  0  0
  3  6  1  0  0  0  0
 10 15  1  0  0  0  0
 16 22  2  0  0  0  0
M  END
>  <Code> (P7569347)
P7569347

>  <Number of H-Donors> (P7569347)
1

>  <Number of H-Acceptors> (P7569347)
5

>  <Number of Rotatable bonds> (P7569347)
3

>  <CLogP> (P7569347)
4.100000000000000e+000

>  <Number of Rings> (P7569347)
4

>  <PSA> (P7569347)
8.510000000000002e+001

$$$$

  -ISIS-  11102212342D

 23 25  0  0  0  0  0  0  0  0999 V2000
    5.3750   -1.5625    0.0000 N   0  0  0  0  0  0  0  0  0  0  0  0
    0.0292   -3.6875    0.0000 C   0  0  0  0  0  0  0  0  0  0  0  0
   -1.2833   -3.9292    0.0000 N   0  0  0  0  0  0  0  0  0  0  0  0
    4.8042   -2.1625    0.0000 C   0  0  0  0  0  0  0  0  0  0  0  0
   -1.1708   -3.1125    0.0000 N   0  0  0  0  0  0  0  0  0  0  0  0
    5.2000   -2.8875    0.0000 N   0  0  0  0  0  0  0  0  0  0  0  0
   -0.3583   -2.9625    0.0000 C   0  0  0  0  0  0  0  0  0  0  0  0
   -0.5375   -4.2875    0.0000 C   0  0  0  0  0  0  0  0  0  0  0  0
    6.1250   -1.9125    0.0000 C   0  0  0  0  0  0  0  0  0  0  0  0
    6.0125   -2.7292    0.0000 C   0  0  0  0  0  0  0  0  0  0  0  0
    0.8417   -3.8000    0.0000 C   0  0  0  0  0  0  0  0  0  0  0  0
    2.1625   -3.2500    0.0000 C   0  0  0  0  0  0  0  0  0  0  0  0
    3.9875   -2.0500    0.0000 C   0  0  0  0  0  0  0  0  0  0  0  0
    2.4792   -4.0042    0.0000 O   0  0  0  0  0  0  0  0  0  0  0  0
    2.6667   -2.6000    0.0000 N   0  0  0  0  0  0  0  0  0  0  0  0
    1.3500   -3.1417    0.0000 C   0  0  0  0  0  0  0  0  0  0  0  0
    3.4875   -2.7042    0.0000 C   0  0  0  0  0  0  0  0  0  0  0  0
   -0.0083   -2.2167    0.0000 C   0  0  0  0  0  0  0  0  0  0  0  0
   -0.3875   -5.1000    0.0000 C   0  0  0  0  0  0  0  0  0  0  0  0
    6.8750   -1.6042    0.0000 C   0  0  0  0  0  0  0  0  0  0  0  0
    6.6625   -3.2292    0.0000 C   0  0  0  0  0  0  0  0  0  0  0  0
    7.5250   -2.1000    0.0000 C   0  0  0  0  0  0  0  0  0  0  0  0
    7.4167   -2.9250    0.0000 C   0  0  0  0  0  0  0  0  0  0  0  0
  2 11  1  0  0  0  0
  3  8  2  0  0  0  0
  4  1  2  0  0  0  0
  5  7  1  0  0  0  0
  6  4  1  0  0  0  0
  7  2  2  0  0  0  0
  8  2  1  0  0  0  0
  9  1  1  0  0  0  0
 10  9  2  0  0  0  0
 11 16  1  0  0  0  0
 12 15  1  0  0  0  0
 13  4  1  0  0  0  0
 14 12  2  0  0  0  0
 15 17  1  0  0  0  0
 16 12  1  0  0  0  0
 17 13  1  0  0  0  0
 18  7  1  0  0  0  0
 19  8  1  0  0  0  0
 20  9  1  0  0  0  0
 21 10  1  0  0  0  0
 22 20  2  0  0  0  0
 23 22  1  0  0  0  0
 10  6  1  0  0  0  0
 23 21  2  0  0  0  0
  3  5  1  0  0  0  0
M  END
>  <Code> (P7566896)
P7566896

>  <Number of H-Donors> (P7566896)
3

>  <Number of H-Acceptors> (P7566896)
3

>  <Number of Rotatable bonds> (P7566896)
6

>  <CLogP> (P7566896)
1.900000000000000e+000

>  <Number of Rings> (P7566896)
3

>  <PSA> (P7566896)
8.650000000000000e+001

$$$$

  -ISIS-  11102212342D

 27 30  0  0  0  0  0  0  0  0999 V2000
    5.5167   -1.5792    0.0000 N   0  0  3  0  0  0  0  0  0  0  0  0
    0.5125   -1.9292    0.0000 C   0  0  0  0  0  0  0  0  0  0  0  0
   -0.2125   -0.7000    0.0000 N   0  0  3  0  0  0  0  0  0  0  0  0
    5.7667   -2.9042    0.0000 N   0  0  0  0  0  0  0  0  0  0  0  0
    4.9542   -2.8042    0.0000 N   0  0  0  0  0  0  0  0  0  0  0  0
   -0.8875   -0.2167    0.0000 N   0  0  0  0  0  0  0  0  0  0  0  0
   -0.6458    0.5583    0.0000 N   0  0  0  0  0  0  0  0  0  0  0  0
    6.1167   -2.1542    0.0000 C   0  0  0  0  0  0  0  0  0  0  0  0
   -0.2000   -1.5167    0.0000 C   0  0  0  0  0  0  0  0  0  0  0  0
    0.1750    0.5708    0.0000 N   0  0  0  0  0  0  0  0  0  0  0  0
    4.8000   -1.9792    0.0000 C   0  0  0  0  0  0  0  0  0  0  0  0
    0.4417   -0.2000    0.0000 C   0  0  0  0  0  0  0  0  0  0  0  0
    1.2250   -1.5042    0.0000 C   0  0  0  0  0  0  0  0  0  0  0  0
    5.7042   -0.7792    0.0000 C   0  0  0  0  0  0  0  0  0  0  0  0
   -0.9083   -1.9417    0.0000 C   0  0  0  0  0  0  0  0  0  0  0  0
    0.5250   -2.7542    0.0000 C   0  0  0  0  0  0  0  0  0  0  0  0
    6.9125   -1.9167    0.0000 C   0  0  0  0  0  0  0  0  0  0  0  0
    1.2375   -0.6875    0.0000 O   0  0  0  0  0  0  0  0  0  0  0  0
    6.4917   -0.5500    0.0000 C   0  0  0  0  0  0  0  0  0  0  0  0
    7.1042   -1.1125    0.0000 C   0  0  0  0  0  0  0  0  0  0  0  0
    1.9292   -1.9292    0.0000 N   0  0  0  0  0  0  0  0  0  0  0  0
   -0.1833   -3.1667    0.0000 C   0  0  0  0  0  0  0  0  0  0  0  0
   -0.8958   -2.7667    0.0000 C   0  0  0  0  0  0  0  0  0  0  0  0
   -0.1833   -3.9917    0.0000 F   0  0  0  0  0  0  0  0  0  0  0  0
    4.0792   -1.5542    0.0000 C   0  0  0  0  0  0  0  0  0  0  0  0
    2.6542   -1.5292    0.0000 C   0  0  0  0  0  0  0  0  0  0  0  0
    3.3625   -1.9542    0.0000 C   0  0  0  0  0  0  0  0  0  0  0  0
  2 13  1  0  0  0  0
  3  9  1  0  0  0  0
  4  8  2  0  0  0  0
  5 11  2  0  0  0  0
  6  3  1  0  0  0  0
  7  6  2  0  0  0  0
  8  1  1  0  0  0  0
  9  2  1  0  0  0  0
 10 12  2  0  0  0  0
 11  1  1  0  0  0  0
 12  3  1  0  0  0  0
 13 21  1  0  0  0  0
 14  1  1  0  0  0  0
 15  9  2  0  0  0  0
 16  2  2  0  0  0  0
 17  8  1  0  0  0  0
 18 13  2  0  0  0  0
 19 14  2  0  0  0  0
 20 19  1  0  0  0  0
 21 26  1  0  0  0  0
 22 16  1  0  0  0  0
 23 22  2  0  0  0  0
 24 22  1  0  0  0  0
 25 11  1  0  0  0  0
 26 27  1  0  0  0  0
 27 25  1  0  0  0  0
  5  4  1  0  0  0  0
 17 20  2  0  0  0  0
 23 15  1  0  0  0  0
  7 10  1  0  0  0  0
M  END
>  <Code> (P7566870)
P7566870

>  <Number of H-Donors> (P7566870)
1

>  <Number of H-Acceptors> (P7566870)
6

>  <Number of Rotatable bonds> (P7566870)
6

>  <CLogP> (P7566870)
1.000000000000000e+000

>  <Number of Rings> (P7566870)
4

>  <PSA> (P7566870)
1.029000000000000e+002

$$$$

  -ISIS-  11102212342D

 26 29  0  0  0  0  0  0  0  0999 V2000
   -1.3458   -1.6042    0.0000 N   0  0  3  0  0  0  0  0  0  0  0  0
   -2.1083   -1.2917    0.0000 C   0  0  0  0  0  0  0  0  0  0  0  0
    3.0542   -2.3167    0.0000 N   0  0  0  0  0  0  0  0  0  0  0  0
    2.9500   -1.5000    0.0000 C   0  0  0  0  0  0  0  0  0  0  0  0
   -1.4083   -2.4292    0.0000 C   0  0  0  0  0  0  0  0  0  0  0  0
    3.6750   -1.1375    0.0000 N   0  0  0  0  0  0  0  0  0  0  0  0
   -2.6375   -1.9167    0.0000 C   0  0  0  0  0  0  0  0  0  0  0  0
   -0.6458   -1.1750    0.0000 C   0  0  2  0  0  0  0  0  0  0  0  0
   -2.2083   -2.6250    0.0000 C   0  0  0  0  0  0  0  0  0  0  0  0
    0.0792   -1.5667    0.0000 C   0  0  0  0  0  0  0  0  0  0  0  0
    3.8750   -2.4625    0.0000 C   0  0  0  0  0  0  0  0  0  0  0  0
    4.2542   -1.7375    0.0000 C   0  0  0  0  0  0  0  0  0  0  0  0
   -2.3000   -0.4875    0.0000 O   0  0  0  0  0  0  0  0  0  0  0  0
    2.2167   -1.1042    0.0000 C   0  0  0  0  0  0  0  0  0  0  0  0
    0.1000   -2.4000    0.0000 O   0  0  0  0  0  0  0  0  0  0  0  0
    0.7875   -1.1375    0.0000 N   0  0  0  0  0  0  0  0  0  0  0  0
    1.5125   -1.5375    0.0000 C   0  0  0  0  0  0  0  0  0  0  0  0
   -3.4583   -1.9375    0.0000 C   0  0  0  0  0  0  0  0  0  0  0  0
   -2.6000   -3.3417    0.0000 C   0  0  0  0  0  0  0  0  0  0  0  0
   -0.6625   -0.3500    0.0000 C   0  0  0  0  0  0  0  0  0  0  0  0
    4.3125   -3.1625    0.0000 C   0  0  0  0  0  0  0  0  0  0  0  0
    5.0875   -1.7000    0.0000 C   0  0  0  0  0  0  0  0  0  0  0  0
   -3.8583   -2.6625    0.0000 C   0  0  0  0  0  0  0  0  0  0  0  0
   -3.4208   -3.3625    0.0000 C   0  0  0  0  0  0  0  0  0  0  0  0
    5.1417   -3.1250    0.0000 C   0  0  0  0  0  0  0  0  0  0  0  0
    5.5250   -2.4000    0.0000 C   0  0  0  0  0  0  0  0  0  0  0  0
  2  1  1  0  0  0  0
  3  4  2  0  0  0  0
  4 14  1  0  0  0  0
  5  1  1  0  0  0  0
  6  4  1  0  0  0  0
  7  2  1  0  0  0  0
  8  1  1  0  0  0  0
  9  5  1  0  0  0  0
 10  8  1  0  0  0  0
 11  3  1  0  0  0  0
 12  6  1  0  0  0  0
 13  2  2  0  0  0  0
 14 17  1  0  0  0  0
 15 10  2  0  0  0  0
 16 10  1  0  0  0  0
 17 16  1  0  0  0  0
 18  7  1  0  0  0  0
 19  9  1  0  0  0  0
  8 20  1  1  0  0  0
 21 11  1  0  0  0  0
 22 12  1  0  0  0  0
 23 18  2  0  0  0  0
 24 19  2  0  0  0  0
 25 21  2  0  0  0  0
 26 22  2  0  0  0  0
  7  9  2  0  0  0  0
 24 23  1  0  0  0  0
 11 12  2  0  0  0  0
 26 25  1  0  0  0  0
M  END
>  <Code> (P7566785)
P7566785

>  <Number of H-Donors> (P7566785)
2

>  <Number of H-Acceptors> (P7566785)
3

>  <Number of Rotatable bonds> (P7566785)
5

>  <CLogP> (P7566785)
2.100000000000000e+000

>  <Number of Rings> (P7566785)
4

>  <PSA> (P7566785)
7.809999999999999e+001

$$$$

  -ISIS-  11102212342D

 28 31  0  0  0  0  0  0  0  0999 V2000
    2.5625   -6.4750    0.0000 C   0  0  0  0  0  0  0  0  0  0  0  0
    3.2750   -6.0542    0.0000 C   0  0  0  0  0  0  0  0  0  0  0  0
    6.8917   -6.3750    0.0000 N   0  0  0  0  0  0  0  0  0  0  0  0
    6.1292   -6.0417    0.0000 C   0  0  0  0  0  0  0  0  0  0  0  0
    3.9917   -6.4667    0.0000 C   0  0  0  0  0  0  0  0  0  0  0  0
    4.7042   -6.0500    0.0000 C   0  0  0  0  0  0  0  0  0  0  0  0
    5.4167   -6.4625    0.0000 N   0  0  0  0  0  0  0  0  0  0  0  0
    2.5667   -7.3000    0.0000 N   0  0  0  0  0  0  0  0  0  0  0  0
    2.2750   -5.1667    0.0000 N   0  0  0  0  0  0  0  0  0  0  0  0
    6.2167   -5.2167    0.0000 N   0  0  0  0  0  0  0  0  0  0  0  0
    1.9500   -5.9250    0.0000 O   0  0  0  0  0  0  0  0  0  0  0  0
    7.4417   -5.7542    0.0000 C   0  0  0  0  0  0  0  0  0  0  0  0
    3.2792   -7.7042    0.0000 C   0  0  0  0  0  0  0  0  0  0  0  0
    3.9917   -7.2917    0.0000 C   0  0  0  0  0  0  0  0  0  0  0  0
    7.0250   -5.0417    0.0000 N   0  0  0  0  0  0  0  0  0  0  0  0
    3.1042   -5.2500    0.0000 C   0  0  0  0  0  0  0  0  0  0  0  0
    4.7000   -5.2292    0.0000 O   0  0  0  0  0  0  0  0  0  0  0  0
    3.2792   -8.5292    0.0000 C   0  0  0  0  0  0  0  0  0  0  0  0
    8.2625   -5.8375    0.0000 C   0  0  0  0  0  0  0  0  0  0  0  0
    3.6417   -4.6292    0.0000 C   0  0  0  0  0  0  0  0  0  0  0  0
    8.6042   -6.5917    0.0000 C   0  0  3  0  0  0  0  0  0  0  0  0
    3.9917   -8.9417    0.0000 C   0  0  0  0  0  0  0  0  0  0  0  0
    2.5667   -8.9375    0.0000 C   0  0  0  0  0  0  0  0  0  0  0  0
    8.1167   -7.2542    0.0000 C   0  0  0  0  0  0  0  0  0  0  0  0
    9.4250   -6.6667    0.0000 C   0  0  0  0  0  0  0  0  0  0  0  0
    2.5625   -9.7625    0.0000 C   0  0  0  0  0  0  0  0  0  0  0  0
    4.0000   -9.7667    0.0000 C   0  0  0  0  0  0  0  0  0  0  0  0
    3.2792  -10.1792    0.0000 C   0  0  0  0  0  0  0  0  0  0  0  0
  2  1  2  0  0  0  0
  3  4  1  0  0  0  0
  4  7  1  0  0  0  0
  5  2  1  0  0  0  0
  6  5  1  0  0  0  0
  7  6  1  0  0  0  0
  8  1  1  0  0  0  0
  9 11  1  0  0  0  0
 10  4  2  0  0  0  0
 11  1  1  0  0  0  0
 12  3  2  0  0  0  0
 13  8  2  0  0  0  0
 14 13  1  0  0  0  0
 15 10  1  0  0  0  0
 16  2  1  0  0  0  0
 17  6  2  0  0  0  0
 18 13  1  0  0  0  0
 19 12  1  0  0  0  0
 20 16  1  0  0  0  0
 21 19  1  0  0  0  0
 22 18  2  0  0  0  0
 23 18  1  0  0  0  0
 24 21  1  0  0  0  0
 25 21  1  0  0  0  0
 26 23  2  0  0  0  0
 27 22  1  0  0  0  0
 28 26  1  0  0  0  0
  9 16  2  0  0  0  0
  5 14  2  0  0  0  0
 27 28  2  0  0  0  0
 12 15  1  0  0  0  0
M  END
>  <Code> (P7566561)
P7566561

>  <Number of H-Donors> (P7566561)
2

>  <Number of H-Acceptors> (P7566561)
5

>  <Number of Rotatable bonds> (P7566561)
5

>  <CLogP> (P7566561)
3.500000000000000e+000

>  <Number of Rings> (P7566561)
4

>  <PSA> (P7566561)
1.096000000000000e+002

$$$$

  -ISIS-  11102212342D

 31 34  0  0  0  0  0  0  0  0999 V2000
    6.4292   -7.0375    0.0000 N   0  0  3  0  0  0  0  0  0  0  0  0
    5.7167   -5.7917    0.0000 C   0  0  0  0  0  0  0  0  0  0  0  0
    5.7167   -6.6250    0.0000 C   0  0  0  0  0  0  0  0  0  0  0  0
    7.1500   -6.6250    0.0000 N   0  0  0  0  0  0  0  0  0  0  0  0
    9.2417  -12.0500    0.0000 N   0  0  0  0  0  0  0  0  0  0  0  0
    7.9167  -12.0542    0.0000 N   0  0  0  0  0  0  0  0  0  0  0  0
    8.5750  -11.5667    0.0000 C   0  0  0  0  0  0  0  0  0  0  0  0
    6.4292   -7.8625    0.0000 C   0  0  0  0  0  0  0  0  0  0  0  0
    5.0042   -5.3792    0.0000 C   0  0  0  0  0  0  0  0  0  0  0  0
    8.9917  -12.8292    0.0000 C   0  0  0  0  0  0  0  0  0  0  0  0
    6.4292   -5.3792    0.0000 C   0  0  0  0  0  0  0  0  0  0  0  0
    8.1667  -12.8292    0.0000 C   0  0  0  0  0  0  0  0  0  0  0  0
    7.1500   -5.7917    0.0000 C   0  0  0  0  0  0  0  0  0  0  0  0
    7.1417   -8.2750    0.0000 C   0  0  0  0  0  0  0  0  0  0  0  0
    5.0000   -7.0500    0.0000 O   0  0  0  0  0  0  0  0  0  0  0  0
    5.0042   -4.5542    0.0000 C   0  0  0  0  0  0  0  0  0  0  0  0
    7.8542   -7.8625    0.0000 O   0  0  0  0  0  0  0  0  0  0  0  0
    6.4292   -4.5542    0.0000 C   0  0  0  0  0  0  0  0  0  0  0  0
    5.7167   -4.1417    0.0000 C   0  0  0  0  0  0  0  0  0  0  0  0
    7.1417   -9.0917    0.0000 N   0  0  0  0  0  0  0  0  0  0  0  0
    4.2875   -5.7917    0.0000 O   0  0  0  0  0  0  0  0  0  0  0  0
    4.2875   -4.1292    0.0000 O   0  0  0  0  0  0  0  0  0  0  0  0
    8.5667  -10.7417    0.0000 C   0  0  0  0  0  0  0  0  0  0  0  0
    9.4125  -13.5417    0.0000 C   0  0  0  0  0  0  0  0  0  0  0  0
    7.7625  -13.5417    0.0000 C   0  0  0  0  0  0  0  0  0  0  0  0
    7.8542   -9.5042    0.0000 C   0  0  0  0  0  0  0  0  0  0  0  0
    3.5750   -5.3792    0.0000 C   0  0  0  0  0  0  0  0  0  0  0  0
    4.2875   -3.3125    0.0000 C   0  0  0  0  0  0  0  0  0  0  0  0
    7.8542  -10.3292    0.0000 C   0  0  0  0  0  0  0  0  0  0  0  0
    8.9917  -14.2542    0.0000 C   0  0  0  0  0  0  0  0  0  0  0  0
    8.1750  -14.2625    0.0000 C   0  0  0  0  0  0  0  0  0  0  0  0
  2  3  1  0  0  0  0
  3  1  1  0  0  0  0
  4  1  1  0  0  0  0
  5  7  2  0  0  0  0
  6  7  1  0  0  0  0
  7 23  1  0  0  0  0
  8  1  1  0  0  0  0
  9  2  1  0  0  0  0
 10  5  1  0  0  0  0
 11 13  1  0  0  0  0
 12  6  1  0  0  0  0
 13  4  2  0  0  0  0
 14  8  1  0  0  0  0
 15  3  2  0  0  0  0
 16  9  2  0  0  0  0
 17 14  2  0  0  0  0
 18 11  1  0  0  0  0
 19 18  2  0  0  0  0
 20 14  1  0  0  0  0
 21  9  1  0  0  0  0
 22 16  1  0  0  0  0
 23 29  1  0  0  0  0
 24 10  1  0  0  0  0
 25 12  1  0  0  0  0
 26 20  1  0  0  0  0
 27 21  1  0  0  0  0
 28 22  1  0  0  0  0
 29 26  1  0  0  0  0
 30 24  2  0  0  0  0
 31 25  2  0  0  0  0
  2 11  2  0  0  0  0
 16 19  1  0  0  0  0
 10 12  2  0  0  0  0
 31 30  1  0  0  0  0
M  END
>  <Code> (P7565213)
P7565213

>  <Number of H-Donors> (P7565213)
2

>  <Number of H-Acceptors> (P7565213)
6

>  <Number of Rotatable bonds> (P7565213)
8

>  <CLogP> (P7565213)
1.900000000000000e+000

>  <Number of Rings> (P7565213)
4

>  <PSA> (P7565213)
1.089000000000000e+002

$$$$

  -ISIS-  11102212342D

 24 26  0  0  0  0  0  0  0  0999 V2000
    1.9667    1.6458    0.0000 C   0  0  0  0  0  0  0  0  0  0  0  0
    2.2250    0.8583    0.0000 N   0  0  0  0  0  0  0  0  0  0  0  0
    1.5542    0.3750    0.0000 C   0  0  0  0  0  0  0  0  0  0  0  0
   -0.5708   -1.6917    0.0000 N   0  0  3  0  0  0  0  0  0  0  0  0
    0.8417   -0.8542    0.0000 C   0  0  0  0  0  0  0  0  0  0  0  0
   -0.6583   -0.8667    0.0000 N   0  0  0  0  0  0  0  0  0  0  0  0
    0.8542   -1.6875    0.0000 C   0  0  0  0  0  0  0  0  0  0  0  0
    1.5542   -0.4500    0.0000 N   0  0  0  0  0  0  0  0  0  0  0  0
   -1.4708   -0.7000    0.0000 N   0  0  0  0  0  0  0  0  0  0  0  0
   -1.8750   -1.4042    0.0000 N   0  0  0  0  0  0  0  0  0  0  0  0
    0.1375   -2.1000    0.0000 C   0  0  0  0  0  0  0  0  0  0  0  0
    0.8917    0.8583    0.0000 S   0  0  0  0  0  0  0  0  0  0  0  0
   -1.3208   -2.0250    0.0000 C   0  0  0  0  0  0  0  0  0  0  0  0
    1.1417    1.6375    0.0000 C   0  0  0  0  0  0  0  0  0  0  0  0
    2.4542    2.3333    0.0000 C   0  0  0  0  0  0  0  0  0  0  0  0
    0.1375   -0.4500    0.0000 O   0  0  0  0  0  0  0  0  0  0  0  0
    3.2750    2.2333    0.0000 O   0  0  0  0  0  0  0  0  0  0  0  0
    2.1167    3.0708    0.0000 O   0  0  0  0  0  0  0  0  0  0  0  0
    1.5667   -2.1000    0.0000 C   0  0  0  0  0  0  0  0  0  0  0  0
    0.1375   -2.9250    0.0000 C   0  0  0  0  0  0  0  0  0  0  0  0
    1.2917    3.1583    0.0000 C   0  0  0  0  0  0  0  0  0  0  0  0
    1.5667   -2.9250    0.0000 C   0  0  0  0  0  0  0  0  0  0  0  0
    0.8542   -3.3417    0.0000 C   0  0  0  0  0  0  0  0  0  0  0  0
    0.9542    3.9083    0.0000 C   0  0  0  0  0  0  0  0  0  0  0  0
  2  1  1  0  0  0  0
  3  2  2  0  0  0  0
  4 11  1  0  0  0  0
  5  8  1  0  0  0  0
  6  4  1  0  0  0  0
  7  5  1  0  0  0  0
  8  3  1  0  0  0  0
  9  6  2  0  0  0  0
 10 13  2  0  0  0  0
 11  7  1  0  0  0  0
 12 14  1  0  0  0  0
 13  4  1  0  0  0  0
 14  1  2  0  0  0  0
 15  1  1  0  0  0  0
 16  5  2  0  0  0  0
 17 15  2  0  0  0  0
 18 15  1  0  0  0  0
 19  7  2  0  0  0  0
 20 11  2  0  0  0  0
 21 18  1  0  0  0  0
 22 19  1  0  0  0  0
 23 22  2  0  0  0  0
 24 21  1  0  0  0  0
  3 12  1  0  0  0  0
 20 23  1  0  0  0  0
  9 10  1  0  0  0  0
M  END
>  <Code> (P7565197)
P7565197

>  <Number of H-Donors> (P7565197)
1

>  <Number of H-Acceptors> (P7565197)
7

>  <Number of Rotatable bonds> (P7565197)
6

>  <CLogP> (P7565197)
1.100000000000000e+000

>  <Number of Rings> (P7565197)
3

>  <PSA> (P7565197)
1.401000000000000e+002

$$$$

  -ISIS-  11102212342D

 25 28  0  0  0  0  0  0  0  0999 V2000
    4.7375    2.8458    0.0000 N   0  0  3  0  0  0  0  0  0  0  0  0
    3.2125   -0.4625    0.0000 C   0  0  0  0  0  0  0  0  0  0  0  0
    1.7875   -0.4667    0.0000 N   0  0  3  0  0  0  0  0  0  0  0  0
    4.6375    2.0208    0.0000 C   0  0  0  0  0  0  0  0  0  0  0  0
    5.3750    1.6750    0.0000 N   0  0  0  0  0  0  0  0  0  0  0  0
    5.9417    2.2708    0.0000 N   0  0  0  0  0  0  0  0  0  0  0  0
    1.7042    0.3583    0.0000 N   0  0  0  0  0  0  0  0  0  0  0  0
    0.8917    0.5250    0.0000 N   0  0  0  0  0  0  0  0  0  0  0  0
    5.5500    2.9958    0.0000 C   0  0  0  0  0  0  0  0  0  0  0  0
    2.5000   -0.8750    0.0000 C   0  0  0  0  0  0  0  0  0  0  0  0
    0.4792   -0.1875    0.0000 N   0  0  0  0  0  0  0  0  0  0  0  0
    3.2042    0.3625    0.0000 C   0  0  0  0  0  0  0  0  0  0  0  0
    1.0375   -0.8000    0.0000 C   0  0  0  0  0  0  0  0  0  0  0  0
    3.9167    0.7833    0.0000 N   0  0  0  0  0  0  0  0  0  0  0  0
    4.2000    3.4708    0.0000 C   0  0  0  0  0  0  0  0  0  0  0  0
    2.5000   -1.7042    0.0000 C   0  0  0  0  0  0  0  0  0  0  0  0
    3.9292   -0.8750    0.0000 C   0  0  0  0  0  0  0  0  0  0  0  0
    3.9167    1.6000    0.0000 C   0  0  0  0  0  0  0  0  0  0  0  0
    5.8167    3.7750    0.0000 C   0  0  0  0  0  0  0  0  0  0  0  0
    2.4917    0.7708    0.0000 O   0  0  0  0  0  0  0  0  0  0  0  0
    4.4667    4.2417    0.0000 C   0  0  0  0  0  0  0  0  0  0  0  0
    5.2750    4.4000    0.0000 C   0  0  0  0  0  0  0  0  0  0  0  0
    3.9292   -1.7042    0.0000 C   0  0  0  0  0  0  0  0  0  0  0  0
    3.2125   -2.1167    0.0000 C   0  0  0  0  0  0  0  0  0  0  0  0
    4.6417   -2.1167    0.0000 Br  0  0  0  0  0  0  0  0  0  0  0  0
  2 12  1  0  0  0  0
  3 10  1  0  0  0  0
  4  1  1  0  0  0  0
  5  4  2  0  0  0  0
  6  9  2  0  0  0  0
  7  3  1  0  0  0  0
  8  7  2  0  0  0  0
  9  1  1  0  0  0  0
 10  2  1  0  0  0  0
 11 13  2  0  0  0  0
 12 14  1  0  0  0  0
 13  3  1  0  0  0  0
 14 18  1  0  0  0  0
 15  1  1  0  0  0  0
 16 10  2  0  0  0  0
 17  2  2  0  0  0  0
 18  4  1  0  0  0  0
 19  9  1  0  0  0  0
 20 12  2  0  0  0  0
 21 15  2  0  0  0  0
 22 21  1  0  0  0  0
 23 17  1  0  0  0  0
 24 23  2  0  0  0  0
 25 23  1  0  0  0  0
  5  6  1  0  0  0  0
 19 22  2  0  0  0  0
 24 16  1  0  0  0  0
 11  8  1  0  0  0  0
M  END
>  <Code> (P7565081)
P7565081

>  <Number of H-Donors> (P7565081)
1

>  <Number of H-Acceptors> (P7565081)
6

>  <Number of Rotatable bonds> (P7565081)
4

>  <CLogP> (P7565081)
9.000000000000000e-001

>  <Number of Rings> (P7565081)
4

>  <PSA> (P7565081)
1.029000000000000e+002

$$$$

  -ISIS-  11102212342D

 31 34  0  0  0  0  0  0  0  0999 V2000
    4.5292   -0.7875    0.0000 C   0  0  0  0  0  0  0  0  0  0  0  0
    5.9625   -0.7875    0.0000 C   0  0  0  0  0  0  0  0  0  0  0  0
    4.5292   -1.6125    0.0000 C   0  0  0  0  0  0  0  0  0  0  0  0
    5.9625   -1.6125    0.0000 C   0  0  0  0  0  0  0  0  0  0  0  0
    3.8167   -0.3750    0.0000 O   0  0  0  0  0  0  0  0  0  0  0  0
    3.8167   -2.0250    0.0000 C   0  0  0  0  0  0  0  0  0  0  0  0
    6.7417   -0.5292    0.0000 O   0  0  0  0  0  0  0  0  0  0  0  0
    3.1042   -1.6125    0.0000 C   0  0  0  0  0  0  0  0  0  0  0  0
    3.1042   -0.7875    0.0000 C   0  0  0  0  0  0  0  0  0  0  0  0
    5.2417   -0.3750    0.0000 C   0  0  0  0  0  0  0  0  0  0  0  0
    6.7417   -1.8667    0.0000 C   0  0  0  0  0  0  0  0  0  0  0  0
    7.2292   -1.2042    0.0000 C   0  0  0  0  0  0  0  0  0  0  0  0
    5.2417   -2.0250    0.0000 C   0  0  0  0  0  0  0  0  0  0  0  0
    2.3792   -2.0292    0.0000 C   0  0  0  0  0  0  0  0  0  0  0  0
    0.9500   -2.0375    0.0000 C   0  0  0  0  0  0  0  0  0  0  0  0
    2.3792   -0.3750    0.0000 O   0  0  0  0  0  0  0  0  0  0  0  0
   -2.6375   -1.6500    0.0000 N   0  0  0  0  0  0  0  0  0  0  0  0
    0.9542   -2.8667    0.0000 O   0  0  0  0  0  0  0  0  0  0  0  0
    1.6625   -1.6167    0.0000 C   0  0  0  0  0  0  0  0  0  0  0  0
    0.2292   -1.6292    0.0000 N   0  0  0  0  0  0  0  0  0  0  0  0
   -1.9250   -2.0625    0.0000 C   0  0  0  0  0  0  0  0  0  0  0  0
    3.8167   -2.8500    0.0000 C   0  0  0  0  0  0  0  0  0  0  0  0
    5.2417    0.4500    0.0000 C   0  0  0  0  0  0  0  0  0  0  0  0
   -1.2083   -1.6417    0.0000 C   0  0  0  0  0  0  0  0  0  0  0  0
    7.0000   -2.6542    0.0000 C   0  0  0  0  0  0  0  0  0  0  0  0
   -0.4875   -2.0500    0.0000 C   0  0  0  0  0  0  0  0  0  0  0  0
    8.0542   -1.2042    0.0000 C   0  0  0  0  0  0  0  0  0  0  0  0
   -3.3583   -2.0625    0.0000 C   0  0  0  0  0  0  0  0  0  0  0  0
   -1.9208   -2.8875    0.0000 C   0  0  0  0  0  0  0  0  0  0  0  0
   -3.3500   -2.8875    0.0000 C   0  0  0  0  0  0  0  0  0  0  0  0
   -2.6333   -3.3000    0.0000 C   0  0  0  0  0  0  0  0  0  0  0  0
  2 10  2  0  0  0  0
  3  1  2  0  0  0  0
  4  2  1  0  0  0  0
  5  1  1  0  0  0  0
  6  3  1  0  0  0  0
  7  2  1  0  0  0  0
  8  9  1  0  0  0  0
  9  5  1  0  0  0  0
 10  1  1  0  0  0  0
 11  4  1  0  0  0  0
 12  7  1  0  0  0  0
 13  3  1  0  0  0  0
 14  8  1  0  0  0  0
 15 19  1  0  0  0  0
 16  9  2  0  0  0  0
 17 21  2  0  0  0  0
 18 15  2  0  0  0  0
 19 14  1  0  0  0  0
 20 15  1  0  0  0  0
 21 24  1  0  0  0  0
 22  6  1  0  0  0  0
 23 10  1  0  0  0  0
 24 26  1  0  0  0  0
 25 11  1  0  0  0  0
 26 20  1  0  0  0  0
 27 12  1  0  0  0  0
 28 17  1  0  0  0  0
 29 21  1  0  0  0  0
 30 31  1  0  0  0  0
 31 29  2  0  0  0  0
  4 13  2  0  0  0  0
  8  6  2  0  0  0  0
 12 11  2  0  0  0  0
 30 28  2  0  0  0  0
M  END
>  <Code> (P7564374)
P7564374

>  <Number of H-Donors> (P7564374)
1

>  <Number of H-Acceptors> (P7564374)
4

>  <Number of Rotatable bonds> (P7564374)
6

>  <CLogP> (P7564374)
4.300000000000000e+000

>  <Number of Rings> (P7564374)
4

>  <PSA> (P7564374)
8.140000000000001e+001

$$$$

  -ISIS-  11102212342D

 31 35  0  0  0  0  0  0  0  0999 V2000
    4.6042    1.9583    0.0000 C   0  0  0  0  0  0  0  0  0  0  0  0
    4.6042    2.7750    0.0000 C   0  0  0  0  0  0  0  0  0  0  0  0
    3.1750    2.7750    0.0000 N   0  0  3  0  0  0  0  0  0  0  0  0
    5.3917    1.7000    0.0000 N   0  0  0  0  0  0  0  0  0  0  0  0
    3.8917    1.5458    0.0000 N   0  0  3  0  0  0  0  0  0  0  0  0
    5.8750    2.3625    0.0000 C   0  0  0  0  0  0  0  0  0  0  0  0
    3.1750    1.9583    0.0000 C   0  0  0  0  0  0  0  0  0  0  0  0
    3.8917    3.1875    0.0000 C   0  0  0  0  0  0  0  0  0  0  0  0
    5.3917    3.0333    0.0000 N   0  0  3  0  0  0  0  0  0  0  0  0
    6.7000    2.3625    0.0000 S   0  0  0  0  0  0  0  0  0  0  0  0
    7.1125    1.6500    0.0000 C   0  0  0  0  0  0  0  0  0  0  0  0
    7.8250    1.2375    0.0000 C   0  0  0  0  0  0  0  0  0  0  0  0
    7.8250    0.4125    0.0000 C   0  0  0  0  0  0  0  0  0  0  0  0
    8.6125    1.4958    0.0000 N   0  0  0  0  0  0  0  0  0  0  0  0
    8.6125    0.1625    0.0000 N   0  0  0  0  0  0  0  0  0  0  0  0
    6.3917    1.2375    0.0000 N   0  0  0  0  0  0  0  0  0  0  0  0
    7.1125   -0.0000    0.0000 N   0  0  0  0  0  0  0  0  0  0  0  0
    9.0917    0.8250    0.0000 C   0  0  0  0  0  0  0  0  0  0  0  0
    2.4625    3.1875    0.0000 C   0  0  0  0  0  0  0  0  0  0  0  0
    2.5917    1.3708    0.0000 O   0  0  0  0  0  0  0  0  0  0  0  0
    3.8917    4.0042    0.0000 O   0  0  0  0  0  0  0  0  0  0  0  0
    6.3917    0.4125    0.0000 C   0  0  0  0  0  0  0  0  0  0  0  0
    3.8917    0.7208    0.0000 C   0  0  0  0  0  0  0  0  0  0  0  0
    1.7417    2.7750    0.0000 C   0  0  0  0  0  0  0  0  0  0  0  0
    5.6417    3.8208    0.0000 C   0  0  0  0  0  0  0  0  0  0  0  0
    0.5792    1.6125    0.0000 C   0  0  0  0  0  0  0  0  0  0  0  0
    0.0000    1.0333    0.0000 Cl  0  0  0  0  0  0  0  0  0  0  0  0
    1.9542    1.9833    0.0000 C   0  0  0  0  0  0  0  0  0  0  0  0
    0.9500    2.9958    0.0000 C   0  0  0  0  0  0  0  0  0  0  0  0
    0.3667    2.4083    0.0000 C   0  0  0  0  0  0  0  0  0  0  0  0
    1.3792    1.4000    0.0000 C   0  0  0  0  0  0  0  0  0  0  0  0
  2  1  2  0  0  0  0
  3  7  1  0  0  0  0
  4  1  1  0  0  0  0
  5  1  1  0  0  0  0
  6  4  2  0  0  0  0
  7  5  1  0  0  0  0
  8  2  1  0  0  0  0
  9  2  1  0  0  0  0
 10  6  1  0  0  0  0
 11 10  1  0  0  0  0
 12 11  1  0  0  0  0
 13 12  2  0  0  0  0
 14 12  1  0  0  0  0
 15 13  1  0  0  0  0
 16 11  2  0  0  0  0
 17 22  2  0  0  0  0
 18 14  2  0  0  0  0
 19  3  1  0  0  0  0
 20  7  2  0  0  0  0
 21  8  2  0  0  0  0
 22 16  1  0  0  0  0
 23  5  1  0  0  0  0
 24 19  1  0  0  0  0
 25  9  1  0  0  0  0
 26 30  2  0  0  0  0
 27 26  1  0  0  0  0
 28 24  1  0  0  0  0
 29 24  2  0  0  0  0
 30 29  1  0  0  0  0
 31 28  2  0  0  0  0
  6  9  1  0  0  0  0
  8  3  1  0  0  0  0
 31 26  1  0  0  0  0
 13 17  1  0  0  0  0
 15 18  1  0  0  0  0
M  END
>  <Code> (P7560625)
P7560625

>  <Number of H-Donors> (P7560625)
1

>  <Number of H-Acceptors> (P7560625)
7

>  <Number of Rotatable bonds> (P7560625)
4

>  <CLogP> (P7560625)
3.300000000000000e+000

>  <Number of Rings> (P7560625)
5

>  <PSA> (P7560625)
1.382000000000000e+002

$$$$

  -ISIS-  11102212342D

 30 34  0  0  0  0  0  0  0  0999 V2000
    4.2375    1.9583    0.0000 C   0  0  0  0  0  0  0  0  0  0  0  0
    4.2375    2.7750    0.0000 C   0  0  0  0  0  0  0  0  0  0  0  0
    2.8042    2.7750    0.0000 N   0  0  3  0  0  0  0  0  0  0  0  0
    5.0167    1.7000    0.0000 N   0  0  0  0  0  0  0  0  0  0  0  0
    3.5167    1.5458    0.0000 N   0  0  3  0  0  0  0  0  0  0  0  0
    5.5042    2.3625    0.0000 C   0  0  0  0  0  0  0  0  0  0  0  0
    2.8042    1.9583    0.0000 C   0  0  0  0  0  0  0  0  0  0  0  0
    3.5167    3.1875    0.0000 C   0  0  0  0  0  0  0  0  0  0  0  0
    5.0167    3.0333    0.0000 N   0  0  3  0  0  0  0  0  0  0  0  0
    6.3292    2.3625    0.0000 S   0  0  0  0  0  0  0  0  0  0  0  0
    6.7417    1.6500    0.0000 C   0  0  0  0  0  0  0  0  0  0  0  0
    7.4542    1.2375    0.0000 C   0  0  0  0  0  0  0  0  0  0  0  0
    7.4542    0.4125    0.0000 C   0  0  0  0  0  0  0  0  0  0  0  0
    8.2417    1.4958    0.0000 N   0  0  0  0  0  0  0  0  0  0  0  0
    8.2417    0.1625    0.0000 N   0  0  0  0  0  0  0  0  0  0  0  0
    6.0292    1.2375    0.0000 N   0  0  0  0  0  0  0  0  0  0  0  0
    6.7417   -0.0000    0.0000 N   0  0  0  0  0  0  0  0  0  0  0  0
    8.7250    0.8250    0.0000 C   0  0  0  0  0  0  0  0  0  0  0  0
    2.0917    3.1875    0.0000 C   0  0  0  0  0  0  0  0  0  0  0  0
    2.2167    1.3708    0.0000 O   0  0  0  0  0  0  0  0  0  0  0  0
    3.5167    4.0042    0.0000 O   0  0  0  0  0  0  0  0  0  0  0  0
    6.0292    0.4125    0.0000 C   0  0  0  0  0  0  0  0  0  0  0  0
    3.5167    0.7208    0.0000 C   0  0  0  0  0  0  0  0  0  0  0  0
    5.2750    3.8208    0.0000 C   0  0  0  0  0  0  0  0  0  0  0  0
    1.3792    2.7750    0.0000 C   0  0  0  0  0  0  0  0  0  0  0  0
    1.5917    1.9833    0.0000 C   0  0  0  0  0  0  0  0  0  0  0  0
    0.5792    2.9958    0.0000 C   0  0  0  0  0  0  0  0  0  0  0  0
    0.0000    2.4083    0.0000 C   0  0  0  0  0  0  0  0  0  0  0  0
    1.0042    1.4000    0.0000 C   0  0  0  0  0  0  0  0  0  0  0  0
    0.2042    1.6125    0.0000 C   0  0  0  0  0  0  0  0  0  0  0  0
  2  1  2  0  0  0  0
  3  7  1  0  0  0  0
  4  1  1  0  0  0  0
  5  1  1  0  0  0  0
  6  4  2  0  0  0  0
  7  5  1  0  0  0  0
  8  2  1  0  0  0  0
  9  2  1  0  0  0  0
 10  6  1  0  0  0  0
 11 10  1  0  0  0  0
 12 11  1  0  0  0  0
 13 12  2  0  0  0  0
 14 12  1  0  0  0  0
 15 13  1  0  0  0  0
 16 11  2  0  0  0  0
 17 22  2  0  0  0  0
 18 14  2  0  0  0  0
 19  3  1  0  0  0  0
 20  7  2  0  0  0  0
 21  8  2  0  0  0  0
 22 16  1  0  0  0  0
 23  5  1  0  0  0  0
 24  9  1  0  0  0  0
 25 19  1  0  0  0  0
 26 25  1  0  0  0  0
 27 25  2  0  0  0  0
 28 27  1  0  0  0  0
 29 26  2  0  0  0  0
 30 28  2  0  0  0  0
  6  9  1  0  0  0  0
  8  3  1  0  0  0  0
 13 17  1  0  0  0  0
 15 18  1  0  0  0  0
 29 30  1  0  0  0  0
M  END
>  <Code> (P7560370)
P7560370

>  <Number of H-Donors> (P7560370)
1

>  <Number of H-Acceptors> (P7560370)
7

>  <Number of Rotatable bonds> (P7560370)
4

>  <CLogP> (P7560370)
2.600000000000000e+000

>  <Number of Rings> (P7560370)
5

>  <PSA> (P7560370)
1.382000000000000e+002

$$$$

  -ISIS-  11102212342D

 26 28  0  0  0  0  0  0  0  0999 V2000
    4.6042    1.2375    0.0000 C   0  0  0  0  0  0  0  0  0  0  0  0
    4.6042    2.0625    0.0000 C   0  0  0  0  0  0  0  0  0  0  0  0
    3.1750    2.0625    0.0000 N   0  0  3  0  0  0  0  0  0  0  0  0
    5.3917    0.9875    0.0000 N   0  0  0  0  0  0  0  0  0  0  0  0
    3.8917    0.8250    0.0000 N   0  0  3  0  0  0  0  0  0  0  0  0
    3.1750    1.2375    0.0000 C   0  0  0  0  0  0  0  0  0  0  0  0
    3.8917    2.4750    0.0000 C   0  0  0  0  0  0  0  0  0  0  0  0
    5.8750    1.6500    0.0000 C   0  0  0  0  0  0  0  0  0  0  0  0
    5.3917    2.3208    0.0000 N   0  0  3  0  0  0  0  0  0  0  0  0
    2.4625    2.4750    0.0000 C   0  0  0  0  0  0  0  0  0  0  0  0
    2.5917    0.6583    0.0000 O   0  0  0  0  0  0  0  0  0  0  0  0
    3.8917    3.3000    0.0000 O   0  0  0  0  0  0  0  0  0  0  0  0
    6.7000    1.6500    0.0000 S   0  0  0  0  0  0  0  0  0  0  0  0
    3.8917   -0.0000    0.0000 C   0  0  0  0  0  0  0  0  0  0  0  0
    1.7417    2.0708    0.0000 C   0  0  0  0  0  0  0  0  0  0  0  0
    5.6417    3.1083    0.0000 C   0  0  0  0  0  0  0  0  0  0  0  0
    0.5792    0.9000    0.0000 C   0  0  0  0  0  0  0  0  0  0  0  0
    0.0000    0.3208    0.0000 Cl  0  0  0  0  0  0  0  0  0  0  0  0
    1.9542    1.2708    0.0000 C   0  0  0  0  0  0  0  0  0  0  0  0
    0.9500    2.2833    0.0000 C   0  0  0  0  0  0  0  0  0  0  0  0
    0.3667    1.6958    0.0000 C   0  0  0  0  0  0  0  0  0  0  0  0
    1.3792    0.6875    0.0000 C   0  0  0  0  0  0  0  0  0  0  0  0
    7.9375    2.3625    0.0000 C   0  0  0  0  0  0  0  0  0  0  0  0
    9.1750    3.0833    0.0000 O   0  0  0  0  0  0  0  0  0  0  0  0
    7.1125    2.3625    0.0000 C   0  0  0  0  0  0  0  0  0  0  0  0
    8.3500    3.0833    0.0000 C   0  0  0  0  0  0  0  0  0  0  0  0
  2  1  2  0  0  0  0
  3  6  1  0  0  0  0
  4  1  1  0  0  0  0
  5  1  1  0  0  0  0
  6  5  1  0  0  0  0
  7  2  1  0  0  0  0
  8  4  2  0  0  0  0
  9  2  1  0  0  0  0
 10  3  1  0  0  0  0
 11  6  2  0  0  0  0
 12  7  2  0  0  0  0
 13  8  1  0  0  0  0
 14  5  1  0  0  0  0
 15 10  1  0  0  0  0
 16  9  1  0  0  0  0
 17 21  2  0  0  0  0
 18 17  1  0  0  0  0
 19 15  1  0  0  0  0
 20 15  2  0  0  0  0
 21 20  1  0  0  0  0
 22 19  2  0  0  0  0
 23 25  1  0  0  0  0
 24 26  1  0  0  0  0
 25 13  1  0  0  0  0
 26 23  1  0  0  0  0
  8  9  1  0  0  0  0
  7  3  1  0  0  0  0
 22 17  1  0  0  0  0
M  END
>  <Code> (P7560226)
P7560226

>  <Number of H-Donors> (P7560226)
1

>  <Number of H-Acceptors> (P7560226)
5

>  <Number of Rotatable bonds> (P7560226)
6

>  <CLogP> (P7560226)
2.800000000000000e+000

>  <Number of Rings> (P7560226)
3

>  <PSA> (P7560226)
1.040000000000000e+002

$$$$

  -ISIS-  11102212342D

 23 25  0  0  0  0  0  0  0  0999 V2000
    2.1625    1.2458    0.0000 C   0  0  0  0  0  0  0  0  0  0  0  0
    2.9625    0.9833    0.0000 N   0  0  0  0  0  0  0  0  0  0  0  0
    2.1625    2.0833    0.0000 C   0  0  0  0  0  0  0  0  0  0  0  0
    1.4292    0.8250    0.0000 N   0  0  3  0  0  0  0  0  0  0  0  0
    3.4542    1.6458    0.0000 C   0  0  0  0  0  0  0  0  0  0  0  0
    0.7125    1.2458    0.0000 C   0  0  0  0  0  0  0  0  0  0  0  0
    0.7125    2.0708    0.0000 N   0  0  0  0  0  0  0  0  0  0  0  0
    1.4250    2.5083    0.0000 C   0  0  0  0  0  0  0  0  0  0  0  0
    2.9667    2.3333    0.0000 N   0  0  3  0  0  0  0  0  0  0  0  0
    4.2792    1.6458    0.0000 N   0  0  0  0  0  0  0  0  0  0  0  0
    0.0000    0.8333    0.0000 O   0  0  0  0  0  0  0  0  0  0  0  0
    1.4250    3.3333    0.0000 O   0  0  0  0  0  0  0  0  0  0  0  0
    6.7542    0.2208    0.0000 N   0  0  0  0  0  0  0  0  0  0  0  0
    1.4292   -0.0000    0.0000 C   0  0  0  0  0  0  0  0  0  0  0  0
    5.5167    0.9333    0.0000 C   0  0  0  0  0  0  0  0  0  0  0  0
    4.6917    0.9333    0.0000 C   0  0  0  0  0  0  0  0  0  0  0  0
    3.2292    3.1125    0.0000 C   0  0  0  0  0  0  0  0  0  0  0  0
    5.9292    0.2208    0.0000 C   0  0  0  0  0  0  0  0  0  0  0  0
    4.3000    4.0542    0.0000 O   0  0  0  0  0  0  0  0  0  0  0  0
    7.1667    0.9333    0.0000 C   0  0  0  0  0  0  0  0  0  0  0  0
    5.9292    1.6458    0.0000 C   0  0  0  0  0  0  0  0  0  0  0  0
    4.0375    3.2750    0.0000 C   0  0  0  0  0  0  0  0  0  0  0  0
    6.7542    1.6458    0.0000 C   0  0  0  0  0  0  0  0  0  0  0  0
  2  1  1  0  0  0  0
  3  1  2  0  0  0  0
  4  1  1  0  0  0  0
  5  2  2  0  0  0  0
  6  4  1  0  0  0  0
  7  6  1  0  0  0  0
  8  3  1  0  0  0  0
  9  3  1  0  0  0  0
 10  5  1  0  0  0  0
 11  6  2  0  0  0  0
 12  8  2  0  0  0  0
 13 18  1  0  0  0  0
 14  4  1  0  0  0  0
 15 16  1  0  0  0  0
 16 10  1  0  0  0  0
 17  9  1  0  0  0  0
 18 15  2  0  0  0  0
 19 22  1  0  0  0  0
 20 23  1  0  0  0  0
 21 15  1  0  0  0  0
 22 17  1  0  0  0  0
 23 21  2  0  0  0  0
  5  9  1  0  0  0  0
  8  7  1  0  0  0  0
 13 20  2  0  0  0  0
M  END
>  <Code> (P7559882)
P7559882

>  <Number of H-Donors> (P7559882)
3

>  <Number of H-Acceptors> (P7559882)
6

>  <Number of Rotatable bonds> (P7559882)
5

>  <CLogP> (P7559882)
-5.000000000000000e-001

>  <Number of Rings> (P7559882)
3

>  <PSA> (P7559882)
1.124000000000000e+002

$$$$

  -ISIS-  11102212342D

 25 27  0  0  0  0  0  0  0  0999 V2000
    2.4792   -5.0750    0.0000 C   0  0  0  0  0  0  0  0  0  0  0  0
    1.7167   -5.4167    0.0000 S   0  0  3  0  0  0  0  0  0  0  0  0
    2.6167   -4.2750    0.0000 C   0  0  0  0  0  0  0  0  0  0  0  0
    3.1875   -5.4667    0.0000 O   0  0  0  0  0  0  0  0  0  0  0  0
    3.4417   -4.1667    0.0000 N   0  0  0  0  0  0  0  0  0  0  0  0
    3.7917   -4.9042    0.0000 C   0  0  0  0  0  0  0  0  0  0  0  0
    0.9625   -5.7667    0.0000 C   0  0  0  0  0  0  0  0  0  0  0  0
    2.0542   -3.6917    0.0000 C   0  0  0  0  0  0  0  0  0  0  0  0
    0.8875   -6.5917    0.0000 C   0  0  0  0  0  0  0  0  0  0  0  0
    1.4792   -3.1125    0.0000 N   0  0  0  0  0  0  0  0  0  0  0  0
    0.1375   -6.9417    0.0000 C   0  0  0  0  0  0  0  0  0  0  0  0
    1.3667   -4.6625    0.0000 O   0  0  0  0  0  0  0  0  0  0  0  0
    2.0667   -6.1792    0.0000 O   0  0  0  0  0  0  0  0  0  0  0  0
    0.0625   -7.7667    0.0000 C   0  0  0  0  0  0  0  0  0  0  0  0
    4.6000   -5.0292    0.0000 C   0  0  0  0  0  0  0  0  0  0  0  0
    1.5542   -7.0667    0.0000 C   0  0  0  0  0  0  0  0  0  0  0  0
    0.7375   -8.2375    0.0000 C   0  0  0  0  0  0  0  0  0  0  0  0
   -0.5375   -6.4792    0.0000 Cl  0  0  0  0  0  0  0  0  0  0  0  0
    1.4792   -7.8875    0.0000 C   0  0  0  0  0  0  0  0  0  0  0  0
    0.6625   -9.0625    0.0000 Cl  0  0  0  0  0  0  0  0  0  0  0  0
    4.9000   -5.7917    0.0000 C   0  0  0  0  0  0  0  0  0  0  0  0
    5.1125   -4.3792    0.0000 C   0  0  0  0  0  0  0  0  0  0  0  0
    5.9292   -4.5042    0.0000 C   0  0  0  0  0  0  0  0  0  0  0  0
    5.7167   -5.9167    0.0000 C   0  0  0  0  0  0  0  0  0  0  0  0
    6.2292   -5.2792    0.0000 C   0  0  0  0  0  0  0  0  0  0  0  0
  2  1  1  0  0  0  0
  3  1  2  0  0  0  0
  4  1  1  0  0  0  0
  5  3  1  0  0  0  0
  6  4  1  0  0  0  0
  7  2  1  0  0  0  0
  8  3  1  0  0  0  0
  9  7  1  0  0  0  0
 10  8  3  0  0  0  0
 11  9  2  0  0  0  0
 12  2  2  0  0  0  0
 13  2  2  0  0  0  0
 14 11  1  0  0  0  0
 15  6  1  0  0  0  0
 16  9  1  0  0  0  0
 17 19  1  0  0  0  0
 18 11  1  0  0  0  0
 19 16  2  0  0  0  0
 20 17  1  0  0  0  0
 21 15  2  0  0  0  0
 22 15  1  0  0  0  0
 23 22  2  0  0  0  0
 24 21  1  0  0  0  0
 25 23  1  0  0  0  0
  6  5  2  0  0  0  0
 24 25  2  0  0  0  0
 14 17  2  0  0  0  0
M  END
>  <Code> (P7553701)
P7553701

>  <Number of H-Donors> (P7553701)
0

>  <Number of H-Acceptors> (P7553701)
4

>  <Number of Rotatable bonds> (P7553701)
4

>  <CLogP> (P7553701)
4.500000000000000e+000

>  <Number of Rings> (P7553701)
3

>  <PSA> (P7553701)
9.229999999999998e+001

$$$$

  -ISIS-  11102212342D

 24 26  0  0  0  0  0  0  0  0999 V2000
    0.2667   -0.6917    0.0000 C   0  0  0  0  0  0  0  0  0  0  0  0
    0.0042    0.0958    0.0000 N   0  0  0  0  0  0  0  0  0  0  0  0
    1.0542   -0.9417    0.0000 C   0  0  0  0  0  0  0  0  0  0  0  0
   -0.4000   -1.1875    0.0000 N   0  0  3  0  0  0  0  0  0  0  0  0
   -1.0833   -0.7042    0.0000 C   0  0  0  0  0  0  0  0  0  0  0  0
   -0.8333    0.0875    0.0000 C   0  0  0  0  0  0  0  0  0  0  0  0
    1.2292   -1.7417    0.0000 C   0  0  0  0  0  0  0  0  0  0  0  0
    1.7875   -0.5542    0.0000 C   0  0  0  0  0  0  0  0  0  0  0  0
    1.4042   -2.5500    0.0000 N   0  0  0  0  0  0  0  0  0  0  0  0
    2.4875   -0.9917    0.0000 C   0  0  0  0  0  0  0  0  0  0  0  0
    3.2167   -0.6042    0.0000 S   0  0  0  0  0  0  0  0  0  0  0  0
   -0.3958   -2.0125    0.0000 C   0  0  0  0  0  0  0  0  0  0  0  0
    3.9125   -1.0417    0.0000 C   0  0  0  0  0  0  0  0  0  0  0  0
    1.8167    0.2708    0.0000 O   0  0  0  0  0  0  0  0  0  0  0  0
    5.3042   -1.9167    0.0000 C   0  0  0  0  0  0  0  0  0  0  0  0
    3.8792   -1.8667    0.0000 C   0  0  0  0  0  0  0  0  0  0  0  0
    4.6375   -0.6542    0.0000 C   0  0  0  0  0  0  0  0  0  0  0  0
    5.3375   -1.0917    0.0000 C   0  0  0  0  0  0  0  0  0  0  0  0
    4.5792   -2.3042    0.0000 C   0  0  0  0  0  0  0  0  0  0  0  0
   -1.8833   -0.8792    0.0000 C   0  0  0  0  0  0  0  0  0  0  0  0
   -1.3875    0.6958    0.0000 C   0  0  0  0  0  0  0  0  0  0  0  0
    6.0042   -2.3625    0.0000 C   0  0  0  0  0  0  0  0  0  0  0  0
   -2.4458   -0.2750    0.0000 C   0  0  0  0  0  0  0  0  0  0  0  0
   -2.1958    0.5125    0.0000 C   0  0  0  0  0  0  0  0  0  0  0  0
  2  1  2  0  0  0  0
  3  1  1  0  0  0  0
  4  1  1  0  0  0  0
  5  4  1  0  0  0  0
  6  2  1  0  0  0  0
  7  3  1  0  0  0  0
  8  3  2  0  0  0  0
  9  7  3  0  0  0  0
 10  8  1  0  0  0  0
 11 10  1  0  0  0  0
 12  4  1  0  0  0  0
 13 11  1  0  0  0  0
 14  8  1  0  0  0  0
 15 18  1  0  0  0  0
 16 13  2  0  0  0  0
 17 13  1  0  0  0  0
 18 17  2  0  0  0  0
 19 16  1  0  0  0  0
 20  5  2  0  0  0  0
 21  6  2  0  0  0  0
 22 15  1  0  0  0  0
 23 20  1  0  0  0  0
 24 21  1  0  0  0  0
  5  6  1  0  0  0  0
 23 24  2  0  0  0  0
 15 19  2  0  0  0  0
M  END
>  <Code> (P7413180399)
P7413180399

>  <Number of H-Donors> (P7413180399)
1

>  <Number of H-Acceptors> (P7413180399)
4

>  <Number of Rotatable bonds> (P7413180399)
4

>  <CLogP> (P7413180399)
4.300000000000000e+000

>  <Number of Rings> (P7413180399)
3

>  <PSA> (P7413180399)
8.710000000000001e+001

$$$$

  -ISIS-  11102212342D

 25 29  0  0  0  0  0  0  0  0999 V2000
    2.5167    1.1958    0.0000 C   0  0  0  0  0  0  0  0  0  0  0  0
    2.2542    0.4083    0.0000 C   0  0  0  0  0  0  0  0  0  0  0  0
    3.3417    1.1958    0.0000 N   0  0  3  0  0  0  0  0  0  0  0  0
    3.6000    0.4083    0.0000 C   0  0  0  0  0  0  0  0  0  0  0  0
    1.8042    1.7458    0.0000 C   0  0  0  0  0  0  0  0  0  0  0  0
    1.1917    1.1958    0.0000 N   0  0  3  0  0  0  0  0  0  0  0  0
    1.4375    0.4083    0.0000 C   0  0  0  0  0  0  0  0  0  0  0  0
    2.9292   -0.0750    0.0000 S   0  0  0  0  0  0  0  0  0  0  0  0
    4.4167    0.4083    0.0000 N   0  0  0  0  0  0  0  0  0  0  0  0
    4.0125    1.6750    0.0000 C   0  0  0  0  0  0  0  0  0  0  0  0
    4.6750    1.1833    0.0000 C   0  0  0  0  0  0  0  0  0  0  0  0
    0.3917    1.4083    0.0000 C   0  0  0  0  0  0  0  0  0  0  0  0
    0.9542   -0.2542    0.0000 O   0  0  0  0  0  0  0  0  0  0  0  0
    1.8500    2.5083    0.0000 O   0  0  0  0  0  0  0  0  0  0  0  0
    0.1792    2.2083    0.0000 C   0  0  0  0  0  0  0  0  0  0  0  0
   -0.1875    0.8250    0.0000 C   0  0  0  0  0  0  0  0  0  0  0  0
   -1.1958    1.8375    0.0000 C   0  0  0  0  0  0  0  0  0  0  0  0
   -0.9833    1.0375    0.0000 C   0  0  0  0  0  0  0  0  0  0  0  0
   -0.6125    2.4208    0.0000 C   0  0  0  0  0  0  0  0  0  0  0  0
    4.1042    2.4875    0.0000 C   0  0  0  0  0  0  0  0  0  0  0  0
   -1.9958    2.0583    0.0000 O   0  0  0  0  0  0  0  0  0  0  0  0
    5.4292    1.5125    0.0000 C   0  0  0  0  0  0  0  0  0  0  0  0
   -2.2083    2.8500    0.0000 C   0  0  0  0  0  0  0  0  0  0  0  0
    4.8542    2.8208    0.0000 C   0  0  0  0  0  0  0  0  0  0  0  0
    5.5167    2.3333    0.0000 C   0  0  0  0  0  0  0  0  0  0  0  0
  2  1  2  0  0  0  0
  3  1  1  0  0  0  0
  4  3  1  0  0  0  0
  5  1  1  0  0  0  0
  6  5  1  0  0  0  0
  7  2  1  0  0  0  0
  8  2  1  0  0  0  0
  9  4  2  0  0  0  0
 10  3  1  0  0  0  0
 11 10  2  0  0  0  0
 12  6  1  0  0  0  0
 13  7  2  0  0  0  0
 14  5  2  0  0  0  0
 15 12  2  0  0  0  0
 16 12  1  0  0  0  0
 17 18  1  0  0  0  0
 18 16  2  0  0  0  0
 19 15  1  0  0  0  0
 20 10  1  0  0  0  0
 21 17  1  0  0  0  0
 22 11  1  0  0  0  0
 23 21  1  0  0  0  0
 24 20  2  0  0  0  0
 25 24  1  0  0  0  0
  4  8  1  0  0  0  0
  7  6  1  0  0  0  0
 11  9  1  0  0  0  0
 17 19  2  0  0  0  0
 25 22  2  0  0  0  0
M  END
>  <Code> (P7413180397)
P7413180397

>  <Number of H-Donors> (P7413180397)
0

>  <Number of H-Acceptors> (P7413180397)
4

>  <Number of Rotatable bonds> (P7413180397)
2

>  <CLogP> (P7413180397)
3.400000000000000e+000

>  <Number of Rings> (P7413180397)
5

>  <PSA> (P7413180397)
9.219999999999999e+001

$$$$

  -ISIS-  11102212342D

 26 30  0  0  0  0  0  0  0  0999 V2000
    6.1375   -7.3542    0.0000 C   0  0  0  0  0  0  0  0  0  0  0  0
    6.8250   -6.9000    0.0000 C   0  0  0  0  0  0  0  0  0  0  0  0
    5.3417   -7.1542    0.0000 C   0  0  0  0  0  0  0  0  0  0  0  0
    4.9042   -7.8500    0.0000 C   0  0  0  0  0  0  0  0  0  0  0  0
    6.1917   -8.1750    0.0000 C   0  0  0  0  0  0  0  0  0  0  0  0
    5.4167   -8.4792    0.0000 S   0  0  0  0  0  0  0  0  0  0  0  0
    7.5542   -7.2667    0.0000 N   0  0  0  0  0  0  0  0  0  0  0  0
    6.9292   -8.5417    0.0000 N   0  0  0  0  0  0  0  0  0  0  0  0
    6.7792   -6.0667    0.0000 O   0  0  0  0  0  0  0  0  0  0  0  0
    8.1292   -4.3500    0.0000 C   0  0  0  0  0  0  0  0  0  0  0  0
    7.4417   -4.7917    0.0000 C   0  0  0  0  0  0  0  0  0  0  0  0
    4.6250   -6.7500    0.0000 C   0  0  0  0  0  0  0  0  0  0  0  0
    7.6167   -8.0875    0.0000 C   0  0  0  0  0  0  0  0  0  0  0  0
    8.8542   -4.7250    0.0000 C   0  0  0  0  0  0  0  0  0  0  0  0
    8.2667   -3.5417    0.0000 O   0  0  0  0  0  0  0  0  0  0  0  0
    7.4792   -5.6167    0.0000 C   0  0  0  0  0  0  0  0  0  0  0  0
    9.4375   -4.1417    0.0000 O   0  0  0  0  0  0  0  0  0  0  0  0
    9.0792   -3.4167    0.0000 C   0  0  0  0  0  0  0  0  0  0  0  0
    8.8917   -5.5417    0.0000 C   0  0  0  0  0  0  0  0  0  0  0  0
    3.8417   -7.0167    0.0000 C   0  0  0  0  0  0  0  0  0  0  0  0
    4.7792   -5.9417    0.0000 C   0  0  0  0  0  0  0  0  0  0  0  0
    8.2042   -5.9917    0.0000 C   0  0  0  0  0  0  0  0  0  0  0  0
    3.2167   -6.4667    0.0000 C   0  0  0  0  0  0  0  0  0  0  0  0
    4.1625   -5.4000    0.0000 C   0  0  0  0  0  0  0  0  0  0  0  0
    3.3750   -5.6667    0.0000 C   0  0  0  0  0  0  0  0  0  0  0  0
    2.7417   -5.1292    0.0000 C   0  0  0  0  0  0  0  0  0  0  0  0
  2  1  1  0  0  0  0
  3  1  1  0  0  0  0
  4  3  2  0  0  0  0
  5  1  2  0  0  0  0
  6  5  1  0  0  0  0
  7  2  2  0  0  0  0
  8  5  1  0  0  0  0
  9  2  1  0  0  0  0
 10 11  2  0  0  0  0
 11 16  1  0  0  0  0
 12  3  1  0  0  0  0
 13  8  2  0  0  0  0
 14 19  2  0  0  0  0
 15 10  1  0  0  0  0
 16  9  1  0  0  0  0
 17 14  1  0  0  0  0
 18 15  1  0  0  0  0
 19 22  1  0  0  0  0
 20 12  1  0  0  0  0
 21 12  2  0  0  0  0
 22 16  2  0  0  0  0
 23 20  2  0  0  0  0
 24 21  1  0  0  0  0
 25 24  2  0  0  0  0
 26 25  1  0  0  0  0
  4  6  1  0  0  0  0
 13  7  1  0  0  0  0
 25 23  1  0  0  0  0
 10 14  1  0  0  0  0
 18 17  1  0  0  0  0
M  END
>  <Code> (P7217970243)
P7217970243

>  <Number of H-Donors> (P7217970243)
0

>  <Number of H-Acceptors> (P7217970243)
5

>  <Number of Rotatable bonds> (P7217970243)
3

>  <CLogP> (P7217970243)
5.000000000000000e+000

>  <Number of Rings> (P7217970243)
5

>  <PSA> (P7217970243)
8.170000000000000e+001

$$$$

  -ISIS-  11102212342D

 28 30  0  0  0  0  0  0  0  0999 V2000
    8.2917   -1.7250    0.0000 S   0  0  3  0  0  0  0  0  0  0  0  0
    7.5667   -1.5292    0.0000 N   0  0  3  0  0  0  0  0  0  0  0  0
    6.6375   -4.3167    0.0000 C   0  0  0  0  0  0  0  0  0  0  0  0
    6.6000   -3.4917    0.0000 C   0  0  0  0  0  0  0  0  0  0  0  0
    5.8625   -4.6042    0.0000 C   0  0  0  0  0  0  0  0  0  0  0  0
    9.0125   -1.9250    0.0000 C   0  0  0  0  0  0  0  0  0  0  0  0
    6.9792   -2.1167    0.0000 C   0  0  0  0  0  0  0  0  0  0  0  0
    5.3542   -3.9625    0.0000 O   0  0  0  0  0  0  0  0  0  0  0  0
    5.8042   -3.2750    0.0000 C   0  0  0  0  0  0  0  0  0  0  0  0
    7.1875   -2.9167    0.0000 C   0  0  0  0  0  0  0  0  0  0  0  0
    7.3542   -0.7292    0.0000 C   0  0  0  0  0  0  0  0  0  0  0  0
    8.0917   -2.4500    0.0000 O   0  0  0  0  0  0  0  0  0  0  0  0
    8.4875   -1.0042    0.0000 O   0  0  0  0  0  0  0  0  0  0  0  0
    9.5417   -1.4000    0.0000 C   0  0  0  0  0  0  0  0  0  0  0  0
    7.3292   -4.7667    0.0000 C   0  0  0  0  0  0  0  0  0  0  0  0
    9.2042   -2.6500    0.0000 C   0  0  0  0  0  0  0  0  0  0  0  0
    6.1792   -1.8917    0.0000 C   0  0  0  0  0  0  0  0  0  0  0  0
   10.2667   -1.5917    0.0000 C   0  0  0  0  0  0  0  0  0  0  0  0
    5.5917   -2.4792    0.0000 C   0  0  0  0  0  0  0  0  0  0  0  0
    7.9417   -0.1417    0.0000 O   0  0  0  0  0  0  0  0  0  0  0  0
    8.0667   -4.4000    0.0000 O   0  0  0  0  0  0  0  0  0  0  0  0
   10.4542   -2.3167    0.0000 C   0  0  0  0  0  0  0  0  0  0  0  0
    9.9250   -2.8500    0.0000 C   0  0  0  0  0  0  0  0  0  0  0  0
    5.6375   -5.4000    0.0000 C   0  0  0  0  0  0  0  0  0  0  0  0
   11.1792   -2.5167    0.0000 F   0  0  0  0  0  0  0  0  0  0  0  0
    6.5542   -0.5167    0.0000 C   0  0  0  0  0  0  0  0  0  0  0  0
    9.3500   -0.6667    0.0000 C   0  0  0  0  0  0  0  0  0  0  0  0
    7.2792   -5.5917    0.0000 C   0  0  0  0  0  0  0  0  0  0  0  0
  2  1  1  0  0  0  0
  3  4  1  0  0  0  0
  4 10  1  0  0  0  0
  5  3  2  0  0  0  0
  6  1  1  0  0  0  0
  7  2  1  0  0  0  0
  8  9  1  0  0  0  0
  9 19  1  0  0  0  0
 10  7  2  0  0  0  0
 11  2  1  0  0  0  0
 12  1  2  0  0  0  0
 13  1  2  0  0  0  0
 14  6  2  0  0  0  0
 15  3  1  0  0  0  0
 16  6  1  0  0  0  0
 17  7  1  0  0  0  0
 18 14  1  0  0  0  0
 19 17  2  0  0  0  0
 20 11  2  0  0  0  0
 21 15  2  0  0  0  0
 22 23  1  0  0  0  0
 23 16  2  0  0  0  0
 24  5  1  0  0  0  0
 25 22  1  0  0  0  0
 26 11  1  0  0  0  0
 27 14  1  0  0  0  0
 28 15  1  0  0  0  0
 22 18  2  0  0  0  0
  9  4  2  0  0  0  0
  8  5  1  0  0  0  0
M  END
>  <Code> (P7217961504)
P7217961504

>  <Number of H-Donors> (P7217961504)
0

>  <Number of H-Acceptors> (P7217961504)
4

>  <Number of Rotatable bonds> (P7217961504)
4

>  <CLogP> (P7217961504)
3.200000000000000e+000

>  <Number of Rings> (P7217961504)
3

>  <PSA> (P7217961504)
9.300000000000000e+001

$$$$

  -ISIS-  11102212342D

 26 29  0  0  0  0  0  0  0  0999 V2000
    5.4750   -2.9292    0.0000 S   0  0  3  0  0  0  0  0  0  0  0  0
    8.7542   -4.4250    0.0000 N   0  0  0  0  0  0  0  0  0  0  0  0
    7.5292   -3.6792    0.0000 C   0  0  0  0  0  0  0  0  0  0  0  0
    7.9250   -4.4042    0.0000 C   0  0  0  0  0  0  0  0  0  0  0  0
    9.1792   -3.7167    0.0000 C   0  0  0  0  0  0  0  0  0  0  0  0
    7.9542   -2.9750    0.0000 C   0  0  0  0  0  0  0  0  0  0  0  0
    6.3042   -2.9417    0.0000 C   0  0  0  0  0  0  0  0  0  0  0  0
    8.7792   -2.9917    0.0000 C   0  0  0  0  0  0  0  0  0  0  0  0
    6.7042   -3.6667    0.0000 C   0  0  0  0  0  0  0  0  0  0  0  0
    7.5625   -2.2542    0.0000 C   0  0  0  0  0  0  0  0  0  0  0  0
    4.6375   -2.9125    0.0000 N   0  0  0  0  0  0  0  0  0  0  0  0
    6.7375   -2.2375    0.0000 C   0  0  0  0  0  0  0  0  0  0  0  0
    5.4542   -3.7625    0.0000 O   0  0  0  0  0  0  0  0  0  0  0  0
    5.4875   -2.0917    0.0000 O   0  0  0  0  0  0  0  0  0  0  0  0
    7.5000   -5.1042    0.0000 O   0  0  0  0  0  0  0  0  0  0  0  0
   10.0125   -3.7375    0.0000 O   0  0  0  0  0  0  0  0  0  0  0  0
    4.2125   -3.6250    0.0000 C   0  0  0  0  0  0  0  0  0  0  0  0
    3.3542   -5.0375    0.0000 C   0  0  0  0  0  0  0  0  0  0  0  0
    3.3875   -3.6042    0.0000 C   0  0  0  0  0  0  0  0  0  0  0  0
    4.6042   -4.3417    0.0000 C   0  0  0  0  0  0  0  0  0  0  0  0
    7.9917   -1.5417    0.0000 C   0  0  0  0  0  0  0  0  0  0  0  0
    9.2125   -2.2792    0.0000 C   0  0  0  0  0  0  0  0  0  0  0  0
    4.1792   -5.0542    0.0000 C   0  0  0  0  0  0  0  0  0  0  0  0
    2.9542   -4.3167    0.0000 C   0  0  0  0  0  0  0  0  0  0  0  0
    8.8167   -1.5625    0.0000 C   0  0  0  0  0  0  0  0  0  0  0  0
    2.9292   -5.7417    0.0000 C   0  0  0  0  0  0  0  0  0  0  0  0
  2  4  1  0  0  0  0
  3  9  1  0  0  0  0
  4  3  1  0  0  0  0
  5  8  1  0  0  0  0
  6 10  1  0  0  0  0
  7  1  1  0  0  0  0
  8  6  1  0  0  0  0
  9  7  2  0  0  0  0
 10 12  2  0  0  0  0
 11  1  1  0  0  0  0
 12  7  1  0  0  0  0
 13  1  2  0  0  0  0
 14  1  2  0  0  0  0
 15  4  2  0  0  0  0
 16  5  2  0  0  0  0
 17 11  1  0  0  0  0
 18 23  1  0  0  0  0
 19 17  2  0  0  0  0
 20 17  1  0  0  0  0
 21 10  1  0  0  0  0
 22 25  1  0  0  0  0
 23 20  2  0  0  0  0
 24 19  1  0  0  0  0
 25 21  2  0  0  0  0
 26 18  1  0  0  0  0
 24 18  2  0  0  0  0
  6  3  2  0  0  0  0
  8 22  2  0  0  0  0
  2  5  1  0  0  0  0
M  END
>  <Code> (P7217960085)
P7217960085

>  <Number of H-Donors> (P7217960085)
2

>  <Number of H-Acceptors> (P7217960085)
4

>  <Number of Rotatable bonds> (P7217960085)
3

>  <CLogP> (P7217960085)
2.500000000000000e+000

>  <Number of Rings> (P7217960085)
4

>  <PSA> (P7217960085)
1.007000000000000e+002

$$$$

  -ISIS-  11102212342D

 22 24  0  0  0  0  0  0  0  0999 V2000
    7.8000   -5.6917    0.0000 S   0  0  3  0  0  0  0  0  0  0  0  0
    6.3125   -5.6917    0.0000 C   0  0  0  0  0  0  0  0  0  0  0  0
    5.0167   -4.9542    0.0000 C   0  0  0  0  0  0  0  0  0  0  0  0
    7.8000   -4.1917    0.0000 O   0  0  0  0  0  0  0  0  0  0  0  0
    7.8000   -7.1792    0.0000 O   0  0  0  0  0  0  0  0  0  0  0  0
    9.2917   -5.6917    0.0000 N   0  0  0  0  0  0  0  0  0  0  0  0
    3.7292   -5.7000    0.0000 C   0  0  0  0  0  0  0  0  0  0  0  0
   13.7625   -5.7000    0.0000 N   0  0  0  0  0  0  0  0  0  0  0  0
    6.3250   -7.1917    0.0000 C   0  0  0  0  0  0  0  0  0  0  0  0
    3.7292   -7.1917    0.0000 C   0  0  0  0  0  0  0  0  0  0  0  0
    5.0375   -7.9375    0.0000 C   0  0  0  0  0  0  0  0  0  0  0  0
   13.0167   -4.4042    0.0000 C   0  0  0  0  0  0  0  0  0  0  0  0
   10.7875   -5.6917    0.0000 C   0  0  0  0  0  0  0  0  0  0  0  0
   11.5292   -4.3917    0.0000 C   0  0  0  0  0  0  0  0  0  0  0  0
   15.2500   -5.7000    0.0000 C   0  0  0  0  0  0  0  0  0  0  0  0
    2.4417   -4.9542    0.0000 C   0  0  0  0  0  0  0  0  0  0  0  0
    2.4417   -7.9542    0.0000 C   0  0  0  0  0  0  0  0  0  0  0  0
   13.7667   -3.1167    0.0000 C   0  0  0  0  0  0  0  0  0  0  0  0
   16.0000   -4.4125    0.0000 C   0  0  0  0  0  0  0  0  0  0  0  0
    1.1542   -5.7000    0.0000 C   0  0  0  0  0  0  0  0  0  0  0  0
    1.1542   -7.2042    0.0000 C   0  0  0  0  0  0  0  0  0  0  0  0
   15.2500   -3.1167    0.0000 C   0  0  0  0  0  0  0  0  0  0  0  0
  2  1  1  0  0  0  0
  3  2  2  0  0  0  0
  4  1  2  0  0  0  0
  5  1  2  0  0  0  0
  6  1  1  0  0  0  0
  7  3  1  0  0  0  0
  8 12  2  0  0  0  0
  9  2  1  0  0  0  0
 10 11  1  0  0  0  0
 11  9  2  0  0  0  0
 12 14  1  0  0  0  0
 13  6  1  0  0  0  0
 14 13  1  0  0  0  0
 15  8  1  0  0  0  0
 16  7  2  0  0  0  0
 17 10  2  0  0  0  0
 18 12  1  0  0  0  0
 19 22  1  0  0  0  0
 20 16  1  0  0  0  0
 21 17  1  0  0  0  0
 22 18  2  0  0  0  0
  7 10  1  0  0  0  0
 20 21  2  0  0  0  0
 15 19  2  0  0  0  0
M  END
>  <Code> (P7217930100)
P7217930100

>  <Number of H-Donors> (P7217930100)
1

>  <Number of H-Acceptors> (P7217930100)
3

>  <Number of Rotatable bonds> (P7217930100)
5

>  <CLogP> (P7217930100)
2.500000000000000e+000

>  <Number of Rings> (P7217930100)
3

>  <PSA> (P7217930100)
6.740000000000001e+001

$$$$

  -ISIS-  11102212342D

 32 36  0  0  0  0  0  0  0  0999 V2000
    3.9167    0.1708    0.0000 C   0  0  0  0  0  0  0  0  0  0  0  0
    4.3167   -1.0917    0.0000 N   0  0  3  0  0  0  0  0  0  0  0  0
    4.7375    0.1583    0.0000 C   0  0  0  0  0  0  0  0  0  0  0  0
    4.9875   -0.6250    0.0000 C   0  0  0  0  0  0  0  0  0  0  0  0
    3.6542   -0.6042    0.0000 C   0  0  3  0  0  0  0  0  0  0  0  0
    2.6167    0.8208    0.0000 C   0  0  0  0  0  0  0  0  0  0  0  0
    3.4500    0.8458    0.0000 C   0  0  0  0  0  0  0  0  0  0  0  0
    2.1542    0.1458    0.0000 O   0  0  0  0  0  0  0  0  0  0  0  0
    2.1000    1.4833    0.0000 C   0  0  0  0  0  0  0  0  0  0  0  0
    7.3417   -3.3667    0.0000 N   0  0  0  0  0  0  0  0  0  0  0  0
    1.3542    0.3750    0.0000 C   0  0  0  0  0  0  0  0  0  0  0  0
    6.4417   -2.3625    0.0000 N   0  0  3  0  0  0  0  0  0  0  0  0
    1.3375    1.1958    0.0000 C   0  0  0  0  0  0  0  0  0  0  0  0
    6.5167   -3.1875    0.0000 C   0  0  0  0  0  0  0  0  0  0  0  0
    5.7750   -0.9000    0.0000 O   0  0  0  0  0  0  0  0  0  0  0  0
    2.8875   -0.9042    0.0000 C   0  0  0  0  0  0  0  0  0  0  0  0
    7.7500   -2.6667    0.0000 C   0  0  0  0  0  0  0  0  0  0  0  0
    3.7917    1.6000    0.0000 O   0  0  0  0  0  0  0  0  0  0  0  0
    7.2000   -2.0417    0.0000 C   0  0  0  0  0  0  0  0  0  0  0  0
    5.2500    0.8208    0.0000 O   0  0  0  0  0  0  0  0  0  0  0  0
    4.3000   -1.9250    0.0000 C   0  0  0  0  0  0  0  0  0  0  0  0
    5.0167   -2.3500    0.0000 C   0  0  0  0  0  0  0  0  0  0  0  0
    5.7292   -1.9417    0.0000 C   0  0  0  0  0  0  0  0  0  0  0  0
    0.6667   -0.0625    0.0000 C   0  0  0  0  0  0  0  0  0  0  0  0
    0.6167    1.5875    0.0000 C   0  0  0  0  0  0  0  0  0  0  0  0
    2.2417   -0.3917    0.0000 C   0  0  0  0  0  0  0  0  0  0  0  0
    2.7667   -1.7167    0.0000 C   0  0  0  0  0  0  0  0  0  0  0  0
   -0.0583    0.3208    0.0000 C   0  0  0  0  0  0  0  0  0  0  0  0
   -0.0833    1.1583    0.0000 C   0  0  0  0  0  0  0  0  0  0  0  0
    2.0000   -2.0292    0.0000 C   0  0  0  0  0  0  0  0  0  0  0  0
    1.4667   -0.6875    0.0000 C   0  0  0  0  0  0  0  0  0  0  0  0
    1.3417   -1.5125    0.0000 C   0  0  0  0  0  0  0  0  0  0  0  0
  2  5  1  0  0  0  0
  3  1  2  0  0  0  0
  4  3  1  0  0  0  0
  5  1  1  0  0  0  0
  6  7  1  0  0  0  0
  7  1  1  0  0  0  0
  8  6  1  0  0  0  0
  9  6  2  0  0  0  0
 10 14  2  0  0  0  0
 11  8  1  0  0  0  0
 12 23  1  0  0  0  0
 13  9  1  0  0  0  0
 14 12  1  0  0  0  0
 15  4  2  0  0  0  0
 16  5  1  0  0  0  0
 17 19  2  0  0  0  0
 18  7  2  0  0  0  0
 19 12  1  0  0  0  0
 20  3  1  0  0  0  0
 21  2  1  0  0  0  0
 22 21  1  0  0  0  0
 23 22  1  0  0  0  0
 24 11  1  0  0  0  0
 25 13  1  0  0  0  0
 26 16  2  0  0  0  0
 27 16  1  0  0  0  0
 28 24  2  0  0  0  0
 29 25  2  0  0  0  0
 30 27  2  0  0  0  0
 31 26  1  0  0  0  0
 32 30  1  0  0  0  0
  2  4  1  0  0  0  0
 11 13  2  0  0  0  0
 31 32  2  0  0  0  0
 29 28  1  0  0  0  0
 10 17  1  0  0  0  0
M  END
>  <Code> (P7217220868)
P7217220868

>  <Number of H-Donors> (P7217220868)
1

>  <Number of H-Acceptors> (P7217220868)
4

>  <Number of Rotatable bonds> (P7217220868)
7

>  <CLogP> (P7217220868)
2.800000000000000e+000

>  <Number of Rings> (P7217220868)
5

>  <PSA> (P7217220868)
8.860000000000002e+001

$$$$

  -ISIS-  11102212342D

 36 40  0  0  0  0  0  0  0  0999 V2000
    1.1625    1.1208    0.0000 C   0  0  0  0  0  0  0  0  0  0  0  0
    1.5417   -0.1500    0.0000 N   0  0  3  0  0  0  0  0  0  0  0  0
    1.9792    1.1083    0.0000 C   0  0  0  0  0  0  0  0  0  0  0  0
    2.2167    0.3208    0.0000 C   0  0  0  0  0  0  0  0  0  0  0  0
    0.8875    0.3458    0.0000 C   0  0  3  0  0  0  0  0  0  0  0  0
   -0.1458    1.8000    0.0000 C   0  0  0  0  0  0  0  0  0  0  0  0
    0.6667    1.7875    0.0000 C   0  0  0  0  0  0  0  0  0  0  0  0
   -0.6458    1.1458    0.0000 O   0  0  0  0  0  0  0  0  0  0  0  0
    0.1792   -0.0667    0.0000 C   0  0  0  0  0  0  0  0  0  0  0  0
   -0.6375    2.4958    0.0000 C   0  0  0  0  0  0  0  0  0  0  0  0
    1.5292   -0.9667    0.0000 C   0  0  0  0  0  0  0  0  0  0  0  0
   -1.4250    1.4083    0.0000 C   0  0  0  0  0  0  0  0  0  0  0  0
   -1.4125    2.2458    0.0000 C   0  0  0  0  0  0  0  0  0  0  0  0
    0.1792   -0.8875    0.0000 C   0  0  0  0  0  0  0  0  0  0  0  0
   -0.5333   -1.2917    0.0000 C   0  0  0  0  0  0  0  0  0  0  0  0
    2.2250   -2.2167    0.0000 N   0  0  3  0  0  0  0  0  0  0  0  0
    2.9917    0.0583    0.0000 O   0  0  0  0  0  0  0  0  0  0  0  0
    1.0167    2.5458    0.0000 O   0  0  0  0  0  0  0  0  0  0  0  0
   -0.5333    0.3500    0.0000 C   0  0  0  0  0  0  0  0  0  0  0  0
   -1.2458   -0.8792    0.0000 C   0  0  0  0  0  0  0  0  0  0  0  0
    2.4750    1.7708    0.0000 O   0  0  0  0  0  0  0  0  0  0  0  0
    2.2417   -1.4000    0.0000 C   0  0  0  0  0  0  0  0  0  0  0  0
   -1.2458   -0.0625    0.0000 C   0  0  0  0  0  0  0  0  0  0  0  0
    2.1917   -3.8667    0.0000 O   0  0  0  0  0  0  0  0  0  0  0  0
   -0.5458   -2.1167    0.0000 O   0  0  0  0  0  0  0  0  0  0  0  0
   -1.9583   -1.2917    0.0000 O   0  0  0  0  0  0  0  0  0  0  0  0
    2.9292   -2.6417    0.0000 C   0  0  0  0  0  0  0  0  0  0  0  0
    1.5000   -2.6167    0.0000 C   0  0  0  0  0  0  0  0  0  0  0  0
   -2.1500    1.0000    0.0000 C   0  0  0  0  0  0  0  0  0  0  0  0
   -2.1333    2.6625    0.0000 C   0  0  0  0  0  0  0  0  0  0  0  0
    2.9042   -3.4625    0.0000 C   0  0  0  0  0  0  0  0  0  0  0  0
    1.4792   -3.4417    0.0000 C   0  0  0  0  0  0  0  0  0  0  0  0
   -1.2500   -2.5250    0.0000 C   0  0  0  0  0  0  0  0  0  0  0  0
   -2.6708   -0.8750    0.0000 C   0  0  0  0  0  0  0  0  0  0  0  0
   -2.8500    2.2583    0.0000 C   0  0  0  0  0  0  0  0  0  0  0  0
   -2.8583    1.4208    0.0000 C   0  0  0  0  0  0  0  0  0  0  0  0
  2  5  1  0  0  0  0
  3  1  2  0  0  0  0
  4  3  1  0  0  0  0
  5  1  1  0  0  0  0
  6  7  1  0  0  0  0
  7  1  1  0  0  0  0
  8  6  1  0  0  0  0
  9  5  1  0  0  0  0
 10  6  2  0  0  0  0
 11  2  1  0  0  0  0
 12  8  1  0  0  0  0
 13 10  1  0  0  0  0
 14  9  1  0  0  0  0
 15 14  2  0  0  0  0
 16 22  1  0  0  0  0
 17  4  2  0  0  0  0
 18  7  2  0  0  0  0
 19  9  2  0  0  0  0
 20 23  2  0  0  0  0
 21  3  1  0  0  0  0
 22 11  1  0  0  0  0
 23 19  1  0  0  0  0
 24 32  1  0  0  0  0
 25 15  1  0  0  0  0
 26 20  1  0  0  0  0
 27 16  1  0  0  0  0
 28 16  1  0  0  0  0
 29 12  1  0  0  0  0
 30 13  1  0  0  0  0
 31 27  1  0  0  0  0
 32 28  1  0  0  0  0
 33 25  1  0  0  0  0
 34 26  1  0  0  0  0
 35 30  2  0  0  0  0
 36 29  2  0  0  0  0
  2  4  1  0  0  0  0
 12 13  2  0  0  0  0
 15 20  1  0  0  0  0
 35 36  1  0  0  0  0
 24 31  1  0  0  0  0
M  END
>  <Code> (P7217220852)
P7217220852

>  <Number of H-Donors> (P7217220852)
1

>  <Number of H-Acceptors> (P7217220852)
7

>  <Number of Rotatable bonds> (P7217220852)
8

>  <CLogP> (P7217220852)
2.800000000000000e+000

>  <Number of Rings> (P7217220852)
5

>  <PSA> (P7217220852)
1.017000000000000e+002

$$$$

  -ISIS-  11102212342D

 27 30  0  0  0  0  0  0  0  0999 V2000
   -0.0500    1.1333    0.0000 N   0  0  3  0  0  0  0  0  0  0  0  0
    0.6042    1.5125    0.0000 C   0  0  0  0  0  0  0  0  0  0  0  0
   -0.6958    1.5125    0.0000 C   0  0  0  0  0  0  0  0  0  0  0  0
   -0.6958    2.2333    0.0000 C   0  0  0  0  0  0  0  0  0  0  0  0
    0.6042    2.2333    0.0000 N   0  0  3  0  0  0  0  0  0  0  0  0
   -0.0500    2.6125    0.0000 C   0  0  0  0  0  0  0  0  0  0  0  0
    0.1292    0.4333    0.0000 C   0  0  0  0  0  0  0  0  0  0  0  0
    1.1500    1.0125    0.0000 N   0  0  0  0  0  0  0  0  0  0  0  0
   -1.3958    1.2958    0.0000 S   0  0  0  0  0  0  0  0  0  0  0  0
    0.8500    0.3500    0.0000 N   0  0  0  0  0  0  0  0  0  0  0  0
   -1.3958    2.4583    0.0000 C   0  0  0  0  0  0  0  0  0  0  0  0
   -1.7958    1.8958    0.0000 C   0  0  0  0  0  0  0  0  0  0  0  0
   -0.3708   -0.1500    0.0000 N   0  0  0  0  0  0  0  0  0  0  0  0
   -0.0500    3.3583    0.0000 O   0  0  0  0  0  0  0  0  0  0  0  0
    1.2500    2.6125    0.0000 C   0  0  0  0  0  0  0  0  0  0  0  0
    1.8875    2.2333    0.0000 C   0  0  0  0  0  0  0  0  0  0  0  0
   -0.1333   -0.8500    0.0000 C   0  0  0  0  0  0  0  0  0  0  0  0
    2.5292    2.5958    0.0000 C   0  0  0  0  0  0  0  0  0  0  0  0
    0.3500   -2.2292    0.0000 C   0  0  0  0  0  0  0  0  0  0  0  0
   -1.6500    3.1500    0.0000 C   0  0  0  0  0  0  0  0  0  0  0  0
   -2.5333    1.9583    0.0000 C   0  0  0  0  0  0  0  0  0  0  0  0
   -0.6125   -1.3875    0.0000 C   0  0  0  0  0  0  0  0  0  0  0  0
    0.5875   -0.9875    0.0000 C   0  0  0  0  0  0  0  0  0  0  0  0
   -0.3958   -2.0667    0.0000 C   0  0  0  0  0  0  0  0  0  0  0  0
    0.8292   -1.6875    0.0000 C   0  0  0  0  0  0  0  0  0  0  0  0
    0.6042   -2.9292    0.0000 O   0  0  0  0  0  0  0  0  0  0  0  0
    0.1292   -3.4875    0.0000 C   0  0  0  0  0  0  0  0  0  0  0  0
  2  1  1  0  0  0  0
  3  1  1  0  0  0  0
  4  3  2  0  0  0  0
  5  2  1  0  0  0  0
  6  4  1  0  0  0  0
  7  1  1  0  0  0  0
  8  2  2  0  0  0  0
  9  3  1  0  0  0  0
 10  7  2  0  0  0  0
 11  4  1  0  0  0  0
 12  9  1  0  0  0  0
 13  7  1  0  0  0  0
 14  6  2  0  0  0  0
 15  5  1  0  0  0  0
 16 15  1  0  0  0  0
 17 13  1  0  0  0  0
 18 16  2  0  0  0  0
 19 25  2  0  0  0  0
 20 11  1  0  0  0  0
 21 12  1  0  0  0  0
 22 17  1  0  0  0  0
 23 17  2  0  0  0  0
 24 22  2  0  0  0  0
 25 23  1  0  0  0  0
 26 19  1  0  0  0  0
 27 26  1  0  0  0  0
  8 10  1  0  0  0  0
 12 11  2  0  0  0  0
  6  5  1  0  0  0  0
 19 24  1  0  0  0  0
M  END
>  <Code> (P7217050004)
P7217050004

>  <Number of H-Donors> (P7217050004)
1

>  <Number of H-Acceptors> (P7217050004)
5

>  <Number of Rotatable bonds> (P7217050004)
5

>  <CLogP> (P7217050004)
3.200000000000000e+000

>  <Number of Rings> (P7217050004)
4

>  <PSA> (P7217050004)
1.005000000000000e+002

$$$$

  -ISIS-  11102212342D

 24 27  0  0  0  0  0  0  0  0999 V2000
    1.7917   -2.0375    0.0000 C   0  0  0  0  0  0  0  0  0  0  0  0
    1.7917   -1.2875    0.0000 N   0  0  3  0  0  0  0  0  0  0  0  0
    4.2250    0.9583    0.0000 N   0  0  3  0  0  0  0  0  0  0  0  0
    2.5042   -1.0542    0.0000 C   0  0  0  0  0  0  0  0  0  0  0  0
    3.5375    0.6583    0.0000 C   0  0  0  0  0  0  0  0  0  0  0  0
    1.1417   -0.9125    0.0000 C   0  0  0  0  0  0  0  0  0  0  0  0
    2.5042   -2.2667    0.0000 N   0  0  0  0  0  0  0  0  0  0  0  0
    1.1417   -2.4125    0.0000 N   0  0  0  0  0  0  0  0  0  0  0  0
    3.4167    1.8708    0.0000 N   0  0  0  0  0  0  0  0  0  0  0  0
    4.1500    1.7083    0.0000 N   0  0  0  0  0  0  0  0  0  0  0  0
    2.9417   -1.6667    0.0000 N   0  0  0  0  0  0  0  0  0  0  0  0
    3.0375    1.2208    0.0000 N   0  0  0  0  0  0  0  0  0  0  0  0
    0.4917   -1.2875    0.0000 C   0  0  0  0  0  0  0  0  0  0  0  0
    0.4917   -2.0375    0.0000 C   0  0  0  0  0  0  0  0  0  0  0  0
    2.7375   -0.3375    0.0000 S   0  0  0  0  0  0  0  0  0  0  0  0
    3.4500   -0.0917    0.0000 C   0  0  0  0  0  0  0  0  0  0  0  0
    4.8792    0.6083    0.0000 C   0  0  0  0  0  0  0  0  0  0  0  0
    1.1417   -0.1542    0.0000 C   0  0  0  0  0  0  0  0  0  0  0  0
   -0.1583   -2.4167    0.0000 C   0  0  0  0  0  0  0  0  0  0  0  0
    4.9042   -0.1375    0.0000 C   0  0  0  0  0  0  0  0  0  0  0  0
    5.5125    1.0083    0.0000 C   0  0  0  0  0  0  0  0  0  0  0  0
    6.1667    0.6583    0.0000 C   0  0  0  0  0  0  0  0  0  0  0  0
    5.5625   -0.4792    0.0000 C   0  0  0  0  0  0  0  0  0  0  0  0
    6.1917   -0.0917    0.0000 C   0  0  0  0  0  0  0  0  0  0  0  0
  2  1  1  0  0  0  0
  3  5  1  0  0  0  0
  4  2  1  0  0  0  0
  5 16  1  0  0  0  0
  6  2  1  0  0  0  0
  7  1  2  0  0  0  0
  8  1  1  0  0  0  0
  9 12  1  0  0  0  0
 10  3  1  0  0  0  0
 11  7  1  0  0  0  0
 12  5  2  0  0  0  0
 13 14  1  0  0  0  0
 14  8  2  0  0  0  0
 15  4  1  0  0  0  0
 16 15  1  0  0  0  0
 17  3  1  0  0  0  0
 18  6  1  0  0  0  0
 19 14  1  0  0  0  0
 20 17  2  0  0  0  0
 21 17  1  0  0  0  0
 22 21  2  0  0  0  0
 23 20  1  0  0  0  0
 24 22  1  0  0  0  0
  4 11  2  0  0  0  0
 13  6  2  0  0  0  0
  9 10  2  0  0  0  0
 24 23  2  0  0  0  0
M  END
>  <Code> (P7216450141)
P7216450141

>  <Number of H-Donors> (P7216450141)
0

>  <Number of H-Acceptors> (P7216450141)
7

>  <Number of Rotatable bonds> (P7216450141)
4

>  <CLogP> (P7216450141)
2.500000000000000e+000

>  <Number of Rings> (P7216450141)
4

>  <PSA> (P7216450141)
1.120000000000000e+002

$$$$

  -ISIS-  11102212342D

 30 34  0  0  0  0  0  0  0  0999 V2000
    3.8875    0.0833    0.0000 C   0  0  3  0  0  0  0  0  0  0  0  0
    1.7292   -1.1542    0.0000 C   0  0  3  0  0  0  0  0  0  0  0  0
    1.7292   -2.0125    0.0000 C   0  0  0  0  0  0  0  0  0  0  0  0
    3.8875   -0.7375    0.0000 C   0  0  3  0  0  0  0  0  0  0  0  0
    2.4542   -0.7667    0.0000 C   0  0  3  0  0  0  0  0  0  0  0  0
    3.1917   -1.1542    0.0000 C   0  0  3  0  0  0  0  0  0  0  0  0
    4.9792    1.0833    0.0000 C   0  0  3  0  0  0  0  0  0  0  0  0
    4.6667    0.3208    0.0000 C   0  0  3  0  0  0  0  0  0  0  0  0
    5.4292    1.7833    0.0000 O   0  0  0  0  0  0  0  0  0  0  0  0
    2.4542   -2.4042    0.0000 C   0  0  0  0  0  0  0  0  0  0  0  0
    3.1625    0.4708    0.0000 C   0  0  0  0  0  0  0  0  0  0  0  0
    6.2417    1.5583    0.0000 C   0  0  0  0  0  0  0  0  0  0  0  0
    3.1917   -2.0125    0.0000 C   0  0  0  0  0  0  0  0  0  0  0  0
    2.4292    0.0500    0.0000 C   0  0  0  0  0  0  0  0  0  0  0  0
    4.6667   -0.9792    0.0000 C   0  0  0  0  0  0  0  0  0  0  0  0
    1.0375   -0.7667    0.0000 C   0  0  0  0  0  0  0  0  0  0  0  0
    5.1625   -0.3125    0.0000 C   0  0  0  0  0  0  0  0  0  0  0  0
    1.0375   -2.4042    0.0000 C   0  0  0  0  0  0  0  0  0  0  0  0
   -0.4208   -3.2542    0.0000 C   0  0  0  0  0  0  0  0  0  0  0  0
    5.4917    0.4458    0.0000 C   0  0  0  0  0  0  0  0  0  0  0  0
   -0.4208   -2.4292    0.0000 O   0  0  0  0  0  0  0  0  0  0  0  0
    6.8792    2.0833    0.0000 O   0  0  0  0  0  0  0  0  0  0  0  0
    0.3042   -2.0125    0.0000 C   0  0  3  0  0  0  0  0  0  0  0  0
   -1.1458   -3.6792    0.0000 O   0  0  0  0  0  0  0  0  0  0  0  0
    6.2417    0.7125    0.0000 C   0  0  0  0  0  0  0  0  0  0  0  0
    0.3042   -1.1542    0.0000 C   0  0  0  0  0  0  0  0  0  0  0  0
    3.8542    0.8958    0.0000 C   0  0  0  0  0  0  0  0  0  0  0  0
    1.7292   -0.3417    0.0000 C   0  0  0  0  0  0  0  0  0  0  0  0
    4.2500    1.4708    0.0000 C   0  0  0  0  0  0  0  0  0  0  0  0
    0.2792   -3.6792    0.0000 C   0  0  0  0  0  0  0  0  0  0  0  0
  2  5  1  0  0  0  0
  3  2  1  0  0  0  0
  4  1  1  0  0  0  0
  5 14  1  0  0  0  0
  6  4  1  0  0  0  0
  7  8  1  0  0  0  0
  8  1  1  0  0  0  0
  9  7  1  0  0  0  0
 10 13  1  0  0  0  0
 11  1  1  0  0  0  0
 12  9  1  0  0  0  0
 13  6  1  0  0  0  0
 14 11  1  0  0  0  0
 15  4  1  0  0  0  0
 16  2  1  0  0  0  0
 17  8  1  0  0  0  0
 18  3  1  0  0  0  0
 19 21  1  0  0  0  0
 20  7  1  0  0  0  0
 21 23  1  0  0  0  0
 22 12  2  0  0  0  0
 23 26  1  0  0  0  0
 24 19  2  0  0  0  0
 25 20  1  0  0  0  0
 26 16  1  0  0  0  0
 27  1  1  0  0  0  0
 28  2  1  0  0  0  0
 29  7  1  0  0  0  0
 30 19  1  0  0  0  0
 17 15  1  0  0  0  0
  6  5  1  0  0  0  0
 12 25  1  0  0  0  0
 10  3  2  0  0  0  0
 18 23  1  0  0  0  0
M  END
>  <Code> (P7216050356)
P7216050356

>  <Number of H-Donors> (P7216050356)
0

>  <Number of H-Acceptors> (P7216050356)
4

>  <Number of Rotatable bonds> (P7216050356)
3

>  <CLogP> (P7216050356)
4.700000000000000e+000

>  <Number of Rings> (P7216050356)
5

>  <PSA> (P7216050356)
5.259999999999999e+001

$$$$

  -ISIS-  11102212342D

 27 31  0  0  0  0  0  0  0  0999 V2000
    5.1042   -2.3750    0.0000 C   0  0  1  0  0  0  0  0  0  0  0  0
    7.6417   -0.9125    0.0000 C   0  0  1  0  0  0  0  0  0  0  0  0
    6.3792   -3.1250    0.0000 C   0  0  3  0  0  0  0  0  0  0  0  0
    3.8042   -3.1250    0.0000 C   0  0  2  0  0  0  0  0  0  0  0  0
    5.1042   -0.9125    0.0000 C   0  0  0  0  0  0  0  0  0  0  0  0
    7.6417   -2.3750    0.0000 C   0  0  3  0  0  0  0  0  0  0  0  0
    9.0292   -0.4292    0.0000 C   0  0  3  0  0  0  0  0  0  0  0  0
    6.3792   -0.1500    0.0000 C   0  0  0  0  0  0  0  0  0  0  0  0
    4.5125   -3.7167    0.0000 O   0  0  0  0  0  0  0  0  0  0  0  0
    3.8042   -4.6375    0.0000 C   0  0  1  0  0  0  0  0  0  0  0  0
    9.5542    0.9583    0.0000 C   0  0  3  0  0  0  0  0  0  0  0  0
   11.0167    1.2375    0.0000 C   0  0  0  0  0  0  0  0  0  0  0  0
    9.0292   -2.8542    0.0000 C   0  0  0  0  0  0  0  0  0  0  0  0
    6.3792   -4.6375    0.0000 C   0  0  0  0  0  0  0  0  0  0  0  0
    9.8667   -1.6167    0.0000 C   0  0  0  0  0  0  0  0  0  0  0  0
    2.5292   -2.3750    0.0000 C   0  0  0  0  0  0  0  0  0  0  0  0
    1.2542   -4.6375    0.0000 C   0  0  1  0  0  0  0  0  0  0  0  0
    3.7625   -0.1167    0.0000 O   0  0  0  0  0  0  0  0  0  0  0  0
    2.5292   -5.3500    0.0000 C   0  0  0  0  0  0  0  0  0  0  0  0
    5.1042   -5.3500    0.0000 C   0  0  0  0  0  0  0  0  0  0  0  0
   11.9375    0.0833    0.0000 O   0  0  0  0  0  0  0  0  0  0  0  0
    7.6417    0.6000    0.0000 C   0  0  0  0  0  0  0  0  0  0  0  0
    1.2542   -3.1250    0.0000 C   0  0  0  0  0  0  0  0  0  0  0  0
   11.5375    2.6250    0.0000 O   0  0  0  0  0  0  0  0  0  0  0  0
    3.8167   -1.7167    0.0000 C   0  0  0  0  0  0  0  0  0  0  0  0
    8.5917    2.1083    0.0000 C   0  0  0  0  0  0  0  0  0  0  0  0
    3.8167   -5.8292    0.0000 H   0  0  0  0  0  0  0  0  0  0  0  0
  2  8  1  0  0  0  0
  3  1  1  0  0  0  0
  4  1  1  0  0  0  0
  5  1  1  0  0  0  0
  6  3  1  0  0  0  0
  7  2  1  0  0  0  0
  8  5  1  0  0  0  0
  1  9  1  6  0  0  0
 10  4  1  0  0  0  0
 11  7  1  0  0  0  0
 12 11  1  0  0  0  0
 13  6  1  0  0  0  0
 14  3  1  0  0  0  0
 15 13  1  0  0  0  0
 16  4  1  0  0  0  0
 17  9  1  6  0  0  0
 18  5  2  0  0  0  0
 19 17  1  0  0  0  0
 20 10  1  0  0  0  0
 21 12  2  0  0  0  0
  2 22  1  1  0  0  0
 23 17  1  0  0  0  0
 24 12  1  0  0  0  0
  4 25  1  1  0  0  0
 26 11  1  0  0  0  0
 10 27  1  1  0  0  0
  2  6  1  0  0  0  0
 16 23  1  0  0  0  0
 10 19  1  0  0  0  0
 20 14  1  0  0  0  0
 15  7  1  0  0  0  0
M  END
>  <Code> (P7216050351)
P7216050351

>  <Number of H-Donors> (P7216050351)
1

>  <Number of H-Acceptors> (P7216050351)
4

>  <Number of Rotatable bonds> (P7216050351)
2

>  <CLogP> (P7216050351)
3.400000000000000e+000

>  <Number of Rings> (P7216050351)
5

>  <PSA> (P7216050351)
6.359999999999999e+001

$$$$

  -ISIS-  11102212342D

 24 26  0  0  0  0  0  0  0  0999 V2000
   -1.4333   -1.2667    0.0000 N   0  0  3  0  0  0  0  0  0  0  0  0
   -2.2833   -0.6500    0.0000 C   0  0  0  0  0  0  0  0  0  0  0  0
   -1.9125    0.2833    0.0000 N   0  0  0  0  0  0  0  0  0  0  0  0
   -0.6000   -0.6875    0.0000 C   0  0  0  0  0  0  0  0  0  0  0  0
   -0.8708    0.2833    0.0000 N   0  0  0  0  0  0  0  0  0  0  0  0
    2.8375    0.0708    0.0000 C   0  0  0  0  0  0  0  0  0  0  0  0
   -3.2625   -0.8875    0.0000 C   0  0  0  0  0  0  0  0  0  0  0  0
    3.8292   -0.2500    0.0000 C   0  0  0  0  0  0  0  0  0  0  0  0
    0.3542   -1.0000    0.0000 S   0  0  0  0  0  0  0  0  0  0  0  0
    2.0875   -0.6042    0.0000 C   0  0  0  0  0  0  0  0  0  0  0  0
    4.5792    0.4625    0.0000 C   0  0  0  0  0  0  0  0  0  0  0  0
    2.6167    1.0458    0.0000 C   0  0  0  0  0  0  0  0  0  0  0  0
    1.1042   -0.3167    0.0000 C   0  0  0  0  0  0  0  0  0  0  0  0
   -4.5500   -2.1042    0.0000 N   0  0  0  0  0  0  0  0  0  0  0  0
    2.3042   -1.6000    0.0000 O   0  0  0  0  0  0  0  0  0  0  0  0
   -1.4333   -2.2875    0.0000 C   0  0  0  0  0  0  0  0  0  0  0  0
    4.3500    1.4458    0.0000 C   0  0  0  0  0  0  0  0  0  0  0  0
    4.0542   -1.2375    0.0000 Cl  0  0  0  0  0  0  0  0  0  0  0  0
    3.3542    1.7458    0.0000 C   0  0  0  0  0  0  0  0  0  0  0  0
   -3.5625   -1.8792    0.0000 C   0  0  0  0  0  0  0  0  0  0  0  0
    5.1167    2.1125    0.0000 Cl  0  0  0  0  0  0  0  0  0  0  0  0
   -3.9625   -0.1500    0.0000 C   0  0  0  0  0  0  0  0  0  0  0  0
   -5.2708   -1.3792    0.0000 C   0  0  0  0  0  0  0  0  0  0  0  0
   -4.9708   -0.4000    0.0000 C   0  0  0  0  0  0  0  0  0  0  0  0
  2  1  1  0  0  0  0
  3  2  2  0  0  0  0
  4  1  1  0  0  0  0
  5  4  2  0  0  0  0
  6 10  1  0  0  0  0
  7  2  1  0  0  0  0
  8  6  2  0  0  0  0
  9  4  1  0  0  0  0
 10 13  1  0  0  0  0
 11  8  1  0  0  0  0
 12  6  1  0  0  0  0
 13  9  1  0  0  0  0
 14 20  2  0  0  0  0
 15 10  2  0  0  0  0
 16  1  1  0  0  0  0
 17 19  1  0  0  0  0
 18  8  1  0  0  0  0
 19 12  2  0  0  0  0
 20  7  1  0  0  0  0
 21 17  1  0  0  0  0
 22  7  2  0  0  0  0
 23 24  2  0  0  0  0
 24 22  1  0  0  0  0
  5  3  1  0  0  0  0
 23 14  1  0  0  0  0
 17 11  2  0  0  0  0
M  END
>  <Code> (P7215700255)
P7215700255

>  <Number of H-Donors> (P7215700255)
0

>  <Number of H-Acceptors> (P7215700255)
5

>  <Number of Rotatable bonds> (P7215700255)
5

>  <CLogP> (P7215700255)
3.800000000000000e+000

>  <Number of Rings> (P7215700255)
3

>  <PSA> (P7215700255)
8.600000000000000e+001

$$$$

  -ISIS-  11102212342D

 22 24  0  0  0  0  0  0  0  0999 V2000
   -1.5833   -0.1667    0.0000 C   0  0  0  0  0  0  0  0  0  0  0  0
   -0.5208    0.1125    0.0000 C   0  0  0  0  0  0  0  0  0  0  0  0
    0.4000   -0.5792    0.0000 N   0  0  3  0  0  0  0  0  0  0  0  0
   -0.1333    1.1500    0.0000 N   0  0  0  0  0  0  0  0  0  0  0  0
   -1.9458   -1.2167    0.0000 S   0  0  0  0  0  0  0  0  0  0  0  0
   -2.4958    0.5458    0.0000 C   0  0  0  0  0  0  0  0  0  0  0  0
    1.3167    0.0833    0.0000 C   0  0  0  0  0  0  0  0  0  0  0  0
    0.9875    1.1500    0.0000 N   0  0  0  0  0  0  0  0  0  0  0  0
   -3.4000   -0.0917    0.0000 C   0  0  0  0  0  0  0  0  0  0  0  0
   -3.1125   -1.1667    0.0000 C   0  0  0  0  0  0  0  0  0  0  0  0
    2.3792   -0.2667    0.0000 S   0  0  0  0  0  0  0  0  0  0  0  0
    4.2875    0.1500    0.0000 C   0  0  0  0  0  0  0  0  0  0  0  0
   -2.4958    1.6458    0.0000 Cl  0  0  0  0  0  0  0  0  0  0  0  0
    4.5292   -0.9375    0.0000 O   0  0  0  0  0  0  0  0  0  0  0  0
    0.4000   -1.6792    0.0000 C   0  0  0  0  0  0  0  0  0  0  0  0
    3.2167    0.4958    0.0000 C   0  0  0  0  0  0  0  0  0  0  0  0
    5.1167    0.9125    0.0000 O   0  0  0  0  0  0  0  0  0  0  0  0
   -4.4708    0.1833    0.0000 C   0  0  0  0  0  0  0  0  0  0  0  0
   -3.8833   -1.9667    0.0000 C   0  0  0  0  0  0  0  0  0  0  0  0
    4.8875    1.9708    0.0000 C   0  0  0  0  0  0  0  0  0  0  0  0
   -5.2708   -0.6000    0.0000 C   0  0  0  0  0  0  0  0  0  0  0  0
   -4.9708   -1.6792    0.0000 C   0  0  0  0  0  0  0  0  0  0  0  0
  2  1  1  0  0  0  0
  3  2  1  0  0  0  0
  4  2  2  0  0  0  0
  5  1  1  0  0  0  0
  6  1  2  0  0  0  0
  7  3  1  0  0  0  0
  8  4  1  0  0  0  0
  9  6  1  0  0  0  0
 10  5  1  0  0  0  0
 11  7  1  0  0  0  0
 12 16  1  0  0  0  0
 13  6  1  0  0  0  0
 14 12  2  0  0  0  0
 15  3  1  0  0  0  0
 16 11  1  0  0  0  0
 17 12  1  0  0  0  0
 18  9  1  0  0  0  0
 19 10  1  0  0  0  0
 20 17  1  0  0  0  0
 21 18  2  0  0  0  0
 22 19  2  0  0  0  0
  9 10  2  0  0  0  0
  8  7  2  0  0  0  0
 21 22  1  0  0  0  0
M  END
>  <Code> (P7215700198)
P7215700198

>  <Number of H-Donors> (P7215700198)
0

>  <Number of H-Acceptors> (P7215700198)
5

>  <Number of Rotatable bonds> (P7215700198)
5

>  <CLogP> (P7215700198)
3.900000000000000e+000

>  <Number of Rings> (P7215700198)
3

>  <PSA> (P7215700198)
1.106000000000000e+002

$$$$

  -ISIS-  11102212342D

 25 28  0  0  0  0  0  0  0  0999 V2000
    7.4167   -8.5875    0.0000 C   0  0  0  0  0  0  0  0  0  0  0  0
    7.4167   -7.7542    0.0000 C   0  0  0  0  0  0  0  0  0  0  0  0
    6.6292   -8.8417    0.0000 S   0  0  0  0  0  0  0  0  0  0  0  0
    6.6292   -7.5042    0.0000 C   0  0  0  0  0  0  0  0  0  0  0  0
    6.1500   -8.1750    0.0000 C   0  0  0  0  0  0  0  0  0  0  0  0
    8.1292   -7.3417    0.0000 C   0  0  0  0  0  0  0  0  0  0  0  0
    8.1292   -9.0000    0.0000 N   0  0  0  0  0  0  0  0  0  0  0  0
    8.8417   -7.7542    0.0000 N   0  0  0  0  0  0  0  0  0  0  0  0
    9.5667   -4.8667    0.0000 C   0  0  0  0  0  0  0  0  0  0  0  0
    8.1292   -6.5167    0.0000 S   0  0  0  0  0  0  0  0  0  0  0  0
   10.2792   -5.2792    0.0000 C   0  0  0  0  0  0  0  0  0  0  0  0
    8.8417   -8.5875    0.0000 C   0  0  0  0  0  0  0  0  0  0  0  0
    8.8417   -5.2792    0.0000 C   0  0  0  0  0  0  0  0  0  0  0  0
   10.9917   -4.8667    0.0000 C   0  0  0  0  0  0  0  0  0  0  0  0
    8.8417   -6.1042    0.0000 C   0  0  0  0  0  0  0  0  0  0  0  0
    9.5667   -4.0417    0.0000 C   0  0  0  0  0  0  0  0  0  0  0  0
    8.1292   -4.8625    0.0000 O   0  0  0  0  0  0  0  0  0  0  0  0
   10.9917   -4.0417    0.0000 C   0  0  0  0  0  0  0  0  0  0  0  0
   10.2792   -3.6292    0.0000 C   0  0  0  0  0  0  0  0  0  0  0  0
    6.3792   -6.7167    0.0000 C   0  0  0  0  0  0  0  0  0  0  0  0
    5.3250   -8.1792    0.0000 C   0  0  0  0  0  0  0  0  0  0  0  0
   11.7042   -5.2792    0.0000 C   0  0  0  0  0  0  0  0  0  0  0  0
   11.7042   -3.6292    0.0000 C   0  0  0  0  0  0  0  0  0  0  0  0
   12.4250   -4.8667    0.0000 C   0  0  0  0  0  0  0  0  0  0  0  0
   12.4250   -4.0417    0.0000 C   0  0  0  0  0  0  0  0  0  0  0  0
  2  1  2  0  0  0  0
  3  1  1  0  0  0  0
  4  2  1  0  0  0  0
  5  3  1  0  0  0  0
  6  2  1  0  0  0  0
  7  1  1  0  0  0  0
  8 12  1  0  0  0  0
  9 13  1  0  0  0  0
 10  6  1  0  0  0  0
 11  9  1  0  0  0  0
 12  7  2  0  0  0  0
 13 15  1  0  0  0  0
 14 11  2  0  0  0  0
 15 10  1  0  0  0  0
 16  9  2  0  0  0  0
 17 13  2  0  0  0  0
 18 19  2  0  0  0  0
 19 16  1  0  0  0  0
 20  4  1  0  0  0  0
 21  5  1  0  0  0  0
 22 14  1  0  0  0  0
 23 18  1  0  0  0  0
 24 22  2  0  0  0  0
 25 23  2  0  0  0  0
  4  5  2  0  0  0  0
  6  8  2  0  0  0  0
 14 18  1  0  0  0  0
 24 25  1  0  0  0  0
M  END
>  <Code> (P7214590421)
P7214590421

>  <Number of H-Donors> (P7214590421)
0

>  <Number of H-Acceptors> (P7214590421)
4

>  <Number of Rotatable bonds> (P7214590421)
4

>  <CLogP> (P7214590421)
5.000000000000000e+000

>  <Number of Rings> (P7214590421)
4

>  <PSA> (P7214590421)
9.640000000000001e+001

$$$$

  -ISIS-  11102212342D

 28 32  0  0  0  0  0  0  0  0999 V2000
    8.8792   -5.4417    0.0000 C   0  0  0  0  0  0  0  0  0  0  0  0
    8.6417   -4.6542    0.0000 N   0  0  3  0  0  0  0  0  0  0  0  0
    9.3667   -7.0292    0.0000 C   0  0  0  0  0  0  0  0  0  0  0  0
    9.9250   -6.4250    0.0000 C   0  0  0  0  0  0  0  0  0  0  0  0
    9.6250   -7.8167    0.0000 C   0  0  0  0  0  0  0  0  0  0  0  0
    8.2042   -5.9167    0.0000 N   0  0  0  0  0  0  0  0  0  0  0  0
    9.6792   -5.6292    0.0000 S   0  0  0  0  0  0  0  0  0  0  0  0
    7.5417   -5.4167    0.0000 N   0  0  0  0  0  0  0  0  0  0  0  0
    7.8167   -4.6417    0.0000 N   0  0  0  0  0  0  0  0  0  0  0  0
    8.2917   -7.8167    0.0000 C   0  0  0  0  0  0  0  0  0  0  0  0
    8.5500   -7.0292    0.0000 C   0  0  0  0  0  0  0  0  0  0  0  0
    8.9542   -8.3000    0.0000 S   0  0  0  0  0  0  0  0  0  0  0  0
   10.4292   -7.9917    0.0000 N   0  0  0  0  0  0  0  0  0  0  0  0
   10.7250   -6.6000    0.0000 N   0  0  0  0  0  0  0  0  0  0  0  0
   10.9792   -7.3792    0.0000 C   0  0  0  0  0  0  0  0  0  0  0  0
    9.2042   -4.0542    0.0000 C   0  0  0  0  0  0  0  0  0  0  0  0
    7.7542   -6.8167    0.0000 C   0  0  0  0  0  0  0  0  0  0  0  0
    7.5042   -8.0667    0.0000 C   0  0  0  0  0  0  0  0  0  0  0  0
    8.9625   -3.2667    0.0000 C   0  0  0  0  0  0  0  0  0  0  0  0
   10.0000   -4.2375    0.0000 C   0  0  0  0  0  0  0  0  0  0  0  0
    7.6542   -6.0000    0.0000 C   0  0  0  0  0  0  0  0  0  0  0  0
    7.0917   -7.3167    0.0000 C   0  0  0  0  0  0  0  0  0  0  0  0
    6.8917   -5.6750    0.0000 C   0  0  0  0  0  0  0  0  0  0  0  0
    6.3375   -6.9917    0.0000 C   0  0  0  0  0  0  0  0  0  0  0  0
    9.5250   -2.6625    0.0000 C   0  0  0  0  0  0  0  0  0  0  0  0
   10.5542   -3.6292    0.0000 C   0  0  0  0  0  0  0  0  0  0  0  0
    6.2292   -6.1792    0.0000 C   0  0  0  0  0  0  0  0  0  0  0  0
   10.3167   -2.8500    0.0000 C   0  0  0  0  0  0  0  0  0  0  0  0
  2  1  1  0  0  0  0
  3  4  1  0  0  0  0
  4  7  1  0  0  0  0
  5  3  2  0  0  0  0
  6  1  2  0  0  0  0
  7  1  1  0  0  0  0
  8  6  1  0  0  0  0
  9  2  1  0  0  0  0
 10 11  2  0  0  0  0
 11  3  1  0  0  0  0
 12  5  1  0  0  0  0
 13 15  2  0  0  0  0
 14  4  2  0  0  0  0
 15 14  1  0  0  0  0
 16  2  1  0  0  0  0
 17 11  1  0  0  0  0
 18 10  1  0  0  0  0
 19 16  1  0  0  0  0
 20 16  2  0  0  0  0
 21 17  2  0  0  0  0
 22 17  1  0  0  0  0
 23 21  1  0  0  0  0
 24 22  2  0  0  0  0
 25 19  2  0  0  0  0
 26 20  1  0  0  0  0
 27 24  1  0  0  0  0
 28 26  2  0  0  0  0
  8  9  2  0  0  0  0
 13  5  1  0  0  0  0
 12 10  1  0  0  0  0
 28 25  1  0  0  0  0
 23 27  2  0  0  0  0
M  END
>  <Code> (P7214590314)
P7214590314

>  <Number of H-Donors> (P7214590314)
0

>  <Number of H-Acceptors> (P7214590314)
6

>  <Number of Rotatable bonds> (P7214590314)
4

>  <CLogP> (P7214590314)
4.900000000000000e+000

>  <Number of Rings> (P7214590314)
5

>  <PSA> (P7214590314)
1.229000000000000e+002

$$$$

  -ISIS-  11102212342D

 27 29  0  0  0  0  0  0  0  0999 V2000
   -1.2708   -0.8875    0.0000 C   0  0  0  0  0  0  0  0  0  0  0  0
   -1.5333   -0.1375    0.0000 C   0  0  0  0  0  0  0  0  0  0  0  0
   -0.5000   -1.0542    0.0000 N   0  0  0  0  0  0  0  0  0  0  0  0
   -0.2125    0.2708    0.0000 N   0  0  0  0  0  0  0  0  0  0  0  0
   -2.5458   -0.9000    0.0000 C   0  0  0  0  0  0  0  0  0  0  0  0
   -0.9958    0.4500    0.0000 C   0  0  0  0  0  0  0  0  0  0  0  0
   -1.9208   -1.3500    0.0000 S   0  0  0  0  0  0  0  0  0  0  0  0
   -2.3125   -0.1375    0.0000 C   0  0  0  0  0  0  0  0  0  0  0  0
    0.0292   -0.4542    0.0000 C   0  0  0  0  0  0  0  0  0  0  0  0
   -3.3000   -1.2000    0.0000 C   0  0  0  0  0  0  0  0  0  0  0  0
    3.4375    0.3708    0.0000 C   0  0  0  0  0  0  0  0  0  0  0  0
   -1.2458    1.2208    0.0000 N   0  0  0  0  0  0  0  0  0  0  0  0
    0.8500   -0.5875    0.0000 S   0  0  0  0  0  0  0  0  0  0  0  0
    3.7292   -0.3542    0.0000 O   0  0  0  0  0  0  0  0  0  0  0  0
   -3.9125   -0.6875    0.0000 C   0  0  0  0  0  0  0  0  0  0  0  0
   -2.7833    0.5333    0.0000 C   0  0  0  0  0  0  0  0  0  0  0  0
    3.9375    1.0125    0.0000 O   0  0  0  0  0  0  0  0  0  0  0  0
    2.6500    0.5000    0.0000 C   0  0  0  0  0  0  0  0  0  0  0  0
    1.3542    0.0333    0.0000 C   0  0  0  0  0  0  0  0  0  0  0  0
    4.7292    0.8625    0.0000 C   0  0  0  0  0  0  0  0  0  0  0  0
   -3.7708    0.1208    0.0000 C   0  0  0  0  0  0  0  0  0  0  0  0
   -4.6625   -0.9542    0.0000 C   0  0  0  0  0  0  0  0  0  0  0  0
    2.1292   -0.0917    0.0000 C   0  0  0  0  0  0  0  0  0  0  0  0
    5.2375    1.4958    0.0000 C   0  0  0  0  0  0  0  0  0  0  0  0
   -5.2708   -0.4500    0.0000 C   0  0  0  0  0  0  0  0  0  0  0  0
   -4.3833    0.6208    0.0000 C   0  0  0  0  0  0  0  0  0  0  0  0
   -5.1333    0.3500    0.0000 C   0  0  0  0  0  0  0  0  0  0  0  0
  2  1  2  0  0  0  0
  3  1  1  0  0  0  0
  4  9  1  0  0  0  0
  5  7  1  0  0  0  0
  6  2  1  0  0  0  0
  7  1  1  0  0  0  0
  8  2  1  0  0  0  0
  9  3  2  0  0  0  0
 10  5  1  0  0  0  0
 11 18  1  0  0  0  0
 12  6  1  0  0  0  0
 13  9  1  0  0  0  0
 14 11  2  0  0  0  0
 15 10  1  0  0  0  0
 16  8  1  0  0  0  0
 17 11  1  0  0  0  0
 18 23  1  0  0  0  0
 19 13  1  0  0  0  0
 20 17  1  0  0  0  0
 21 15  2  0  0  0  0
 22 15  1  0  0  0  0
 23 19  1  0  0  0  0
 24 20  1  0  0  0  0
 25 22  2  0  0  0  0
 26 21  1  0  0  0  0
 27 25  1  0  0  0  0
  8  5  2  0  0  0  0
  6  4  2  0  0  0  0
 26 27  2  0  0  0  0
M  END
>  <Code> (P7214170053)
P7214170053

>  <Number of H-Donors> (P7214170053)
1

>  <Number of H-Acceptors> (P7214170053)
6

>  <Number of Rotatable bonds> (P7214170053)
9

>  <CLogP> (P7214170053)
4.900000000000000e+000

>  <Number of Rings> (P7214170053)
3

>  <PSA> (P7214170053)
1.316000000000000e+002

$$$$

  -ISIS-  11102212342D

 21 22  0  0  0  0  0  0  0  0999 V2000
    0.9500    0.0208    0.0000 S   0  0  3  0  0  0  0  0  0  0  0  0
   -2.3000   -1.1500    0.0000 C   0  0  0  0  0  0  0  0  0  0  0  0
   -0.3500    0.0208    0.0000 C   0  0  0  0  0  0  0  0  0  0  0  0
   -0.9958   -1.1292    0.0000 C   0  0  0  0  0  0  0  0  0  0  0  0
    2.2792    0.0208    0.0000 N   0  0  0  0  0  0  0  0  0  0  0  0
   -2.9125   -2.2792    0.0000 C   0  0  0  0  0  0  0  0  0  0  0  0
    0.9500   -1.3042    0.0000 O   0  0  0  0  0  0  0  0  0  0  0  0
    0.9500    1.3208    0.0000 O   0  0  0  0  0  0  0  0  0  0  0  0
   -2.9625   -0.0042    0.0000 C   0  0  0  0  0  0  0  0  0  0  0  0
    2.9042    1.1458    0.0000 C   0  0  0  0  0  0  0  0  0  0  0  0
   -2.2708   -3.4000    0.0000 O   0  0  0  0  0  0  0  0  0  0  0  0
   -0.9958    1.1458    0.0000 C   0  0  0  0  0  0  0  0  0  0  0  0
    2.9042    3.4000    0.0000 N   0  0  0  0  0  0  0  0  0  0  0  0
   -2.3000    1.1125    0.0000 C   0  0  0  0  0  0  0  0  0  0  0  0
   -4.2083   -2.3375    0.0000 O   0  0  0  0  0  0  0  0  0  0  0  0
   -4.2708   -0.0042    0.0000 O   0  0  0  0  0  0  0  0  0  0  0  0
    2.2542    2.2708    0.0000 C   0  0  0  0  0  0  0  0  0  0  0  0
    4.2292    3.4000    0.0000 C   0  0  0  0  0  0  0  0  0  0  0  0
    4.2167    1.1458    0.0000 C   0  0  0  0  0  0  0  0  0  0  0  0
   -4.9083   -1.1292    0.0000 C   0  0  0  0  0  0  0  0  0  0  0  0
    4.8792    2.2708    0.0000 C   0  0  0  0  0  0  0  0  0  0  0  0
  2  4  2  0  0  0  0
  3  1  1  0  0  0  0
  4  3  1  0  0  0  0
  5  1  1  0  0  0  0
  6  2  1  0  0  0  0
  7  1  2  0  0  0  0
  8  1  2  0  0  0  0
  9 14  2  0  0  0  0
 10  5  1  0  0  0  0
 11  6  2  0  0  0  0
 12  3  2  0  0  0  0
 13 17  2  0  0  0  0
 14 12  1  0  0  0  0
 15  6  1  0  0  0  0
 16  9  1  0  0  0  0
 17 10  1  0  0  0  0
 18 21  2  0  0  0  0
 19 10  2  0  0  0  0
 20 16  1  0  0  0  0
 21 19  1  0  0  0  0
  9  2  1  0  0  0  0
 13 18  1  0  0  0  0
M  END
>  <Code> (P7213400024)
P7213400024

>  <Number of H-Donors> (P7213400024)
2

>  <Number of H-Acceptors> (P7213400024)
6

>  <Number of Rotatable bonds> (P7213400024)
5

>  <CLogP> (P7213400024)
8.000000000000000e-001

>  <Number of Rings> (P7213400024)
2

>  <PSA> (P7213400024)
1.140000000000000e+002

$$$$

  -ISIS-  11102212342D

 28 30  0  0  0  0  0  0  0  0999 V2000
   -0.5458   -2.8417    0.0000 C   0  0  0  0  0  0  0  0  0  0  0  0
    0.7750   -2.5167    0.0000 N   0  0  3  0  0  0  0  0  0  0  0  0
   -0.4583   -2.0250    0.0000 C   0  0  0  0  0  0  0  0  0  0  0  0
    0.3667   -1.8542    0.0000 C   0  0  0  0  0  0  0  0  0  0  0  0
    0.2375   -3.1792    0.0000 C   0  0  3  0  0  0  0  0  0  0  0  0
   -1.2000   -3.3417    0.0000 C   0  0  0  0  0  0  0  0  0  0  0  0
    0.7250   -1.0792    0.0000 O   0  0  0  0  0  0  0  0  0  0  0  0
   -1.9750   -2.9667    0.0000 C   0  0  0  0  0  0  0  0  0  0  0  0
    0.4417   -3.9042    0.0000 C   0  0  0  0  0  0  0  0  0  0  0  0
   -1.1208   -4.1625    0.0000 O   0  0  0  0  0  0  0  0  0  0  0  0
   -1.0708   -1.4917    0.0000 O   0  0  0  0  0  0  0  0  0  0  0  0
    0.6125   -5.5417    0.0000 N   0  0  0  0  0  0  0  0  0  0  0  0
    1.5917   -2.5625    0.0000 C   0  0  0  0  0  0  0  0  0  0  0  0
   -2.0583   -2.1500    0.0000 C   0  0  0  0  0  0  0  0  0  0  0  0
   -2.6708   -3.4542    0.0000 C   0  0  0  0  0  0  0  0  0  0  0  0
    2.0042   -1.8167    0.0000 C   0  0  0  0  0  0  0  0  0  0  0  0
   -3.4875   -2.3125    0.0000 C   0  0  0  0  0  0  0  0  0  0  0  0
    3.2792   -1.1250    0.0000 N   0  0  3  0  0  0  0  0  0  0  0  0
   -2.8458   -1.8167    0.0000 C   0  0  0  0  0  0  0  0  0  0  0  0
   -3.4125   -3.1292    0.0000 C   0  0  0  0  0  0  0  0  0  0  0  0
   -4.2833   -1.9792    0.0000 Cl  0  0  0  0  0  0  0  0  0  0  0  0
    2.8667   -1.8167    0.0000 C   0  0  0  0  0  0  0  0  0  0  0  0
   -0.0958   -5.2292    0.0000 C   0  0  0  0  0  0  0  0  0  0  0  0
    1.3042   -5.0542    0.0000 C   0  0  0  0  0  0  0  0  0  0  0  0
   -0.2083   -4.4042    0.0000 C   0  0  0  0  0  0  0  0  0  0  0  0
    1.1875   -4.2375    0.0000 C   0  0  0  0  0  0  0  0  0  0  0  0
    2.8292   -0.3792    0.0000 C   0  0  0  0  0  0  0  0  0  0  0  0
    4.1000   -1.1250    0.0000 C   0  0  0  0  0  0  0  0  0  0  0  0
  2  5  1  0  0  0  0
  3  1  2  0  0  0  0
  4  3  1  0  0  0  0
  5  1  1  0  0  0  0
  6  1  1  0  0  0  0
  7  4  2  0  0  0  0
  8  6  1  0  0  0  0
  9  5  1  0  0  0  0
 10  6  2  0  0  0  0
 11  3  1  0  0  0  0
 12 24  1  0  0  0  0
 13  2  1  0  0  0  0
 14  8  1  0  0  0  0
 15  8  2  0  0  0  0
 16 13  1  0  0  0  0
 17 20  2  0  0  0  0
 18 22  1  0  0  0  0
 19 14  2  0  0  0  0
 20 15  1  0  0  0  0
 21 17  1  0  0  0  0
 22 16  1  0  0  0  0
 23 25  1  0  0  0  0
 24 26  2  0  0  0  0
 25  9  2  0  0  0  0
 26  9  1  0  0  0  0
 27 18  1  0  0  0  0
 28 18  1  0  0  0  0
  2  4  1  0  0  0  0
 17 19  1  0  0  0  0
 12 23  2  0  0  0  0
M  END
>  <Code> (P7213380148)
P7213380148

>  <Number of H-Donors> (P7213380148)
1

>  <Number of H-Acceptors> (P7213380148)
5

>  <Number of Rotatable bonds> (P7213380148)
7

>  <CLogP> (P7213380148)
2.100000000000000e+000

>  <Number of Rings> (P7213380148)
3

>  <PSA> (P7213380148)
7.370000000000000e+001

$$$$

  -ISIS-  11102212342D

 29 32  0  0  0  0  0  0  0  0999 V2000
    6.0042   -7.8917    0.0000 C   0  0  0  0  0  0  0  0  0  0  0  0
    6.0042   -7.0667    0.0000 C   0  0  0  0  0  0  0  0  0  0  0  0
    5.2250   -8.1417    0.0000 S   0  0  0  0  0  0  0  0  0  0  0  0
    5.2250   -6.8125    0.0000 C   0  0  0  0  0  0  0  0  0  0  0  0
    6.7167   -6.6542    0.0000 C   0  0  0  0  0  0  0  0  0  0  0  0
    4.7417   -7.4750    0.0000 C   0  0  0  0  0  0  0  0  0  0  0  0
    6.7167   -8.3042    0.0000 N   0  0  0  0  0  0  0  0  0  0  0  0
    7.4375   -7.0667    0.0000 N   0  0  0  0  0  0  0  0  0  0  0  0
    6.7167   -3.3417    0.0000 C   0  0  0  0  0  0  0  0  0  0  0  0
    7.4375   -7.8917    0.0000 C   0  0  0  0  0  0  0  0  0  0  0  0
    6.7167   -4.1750    0.0000 N   0  0  0  0  0  0  0  0  0  0  0  0
    6.7167   -5.8292    0.0000 S   0  0  0  0  0  0  0  0  0  0  0  0
    6.0042   -4.5875    0.0000 C   0  0  0  0  0  0  0  0  0  0  0  0
    7.4375   -2.9292    0.0000 C   0  0  0  0  0  0  0  0  0  0  0  0
    6.0042   -2.9292    0.0000 C   0  0  0  0  0  0  0  0  0  0  0  0
    3.9167   -7.5125    0.0000 C   0  0  0  0  0  0  0  0  0  0  0  0
    5.2917   -4.1750    0.0000 O   0  0  0  0  0  0  0  0  0  0  0  0
    6.0042   -5.4167    0.0000 C   0  0  0  0  0  0  0  0  0  0  0  0
    5.2875   -3.3542    0.0000 F   0  0  0  0  0  0  0  0  0  0  0  0
    8.1542   -3.3542    0.0000 F   0  0  0  0  0  0  0  0  0  0  0  0
    8.1542   -8.3042    0.0000 C   0  0  0  0  0  0  0  0  0  0  0  0
    6.7167   -1.6917    0.0000 C   0  0  0  0  0  0  0  0  0  0  0  0
    6.0042   -2.1042    0.0000 C   0  0  0  0  0  0  0  0  0  0  0  0
    7.4375   -2.1042    0.0000 C   0  0  0  0  0  0  0  0  0  0  0  0
    3.5292   -8.2417    0.0000 C   0  0  0  0  0  0  0  0  0  0  0  0
    3.4750   -6.8167    0.0000 C   0  0  0  0  0  0  0  0  0  0  0  0
    2.7042   -8.2792    0.0000 C   0  0  0  0  0  0  0  0  0  0  0  0
    2.6417   -6.8500    0.0000 C   0  0  0  0  0  0  0  0  0  0  0  0
    2.2542   -7.5750    0.0000 C   0  0  0  0  0  0  0  0  0  0  0  0
  2  1  2  0  0  0  0
  3  1  1  0  0  0  0
  4  2  1  0  0  0  0
  5  2  1  0  0  0  0
  6  3  1  0  0  0  0
  7  1  1  0  0  0  0
  8 10  1  0  0  0  0
  9 11  1  0  0  0  0
 10  7  2  0  0  0  0
 11 13  1  0  0  0  0
 12  5  1  0  0  0  0
 13 18  1  0  0  0  0
 14  9  2  0  0  0  0
 15  9  1  0  0  0  0
 16  6  1  0  0  0  0
 17 13  2  0  0  0  0
 18 12  1  0  0  0  0
 19 15  1  0  0  0  0
 20 14  1  0  0  0  0
 21 10  1  0  0  0  0
 22 23  1  0  0  0  0
 23 15  2  0  0  0  0
 24 14  1  0  0  0  0
 25 16  1  0  0  0  0
 26 16  2  0  0  0  0
 27 25  2  0  0  0  0
 28 26  1  0  0  0  0
 29 28  2  0  0  0  0
  4  6  2  0  0  0  0
  5  8  2  0  0  0  0
 29 27  1  0  0  0  0
 22 24  2  0  0  0  0
M  END
>  <Code> (P7213330387)
P7213330387

>  <Number of H-Donors> (P7213330387)
1

>  <Number of H-Acceptors> (P7213330387)
4

>  <Number of Rotatable bonds> (P7213330387)
5

>  <CLogP> (P7213330387)
5.000000000000000e+000

>  <Number of Rings> (P7213330387)
4

>  <PSA> (P7213330387)
1.084000000000000e+002

$$$$

  -ISIS-  11102212342D

 28 31  0  0  0  0  0  0  0  0999 V2000
   -1.2208    2.0958    0.0000 C   0  0  0  0  0  0  0  0  0  0  0  0
   -0.6208    1.9583    0.0000 C   0  0  0  0  0  0  0  0  0  0  0  0
   -1.2833    2.6958    0.0000 S   0  0  0  0  0  0  0  0  0  0  0  0
   -0.3208    2.4708    0.0000 C   0  0  0  0  0  0  0  0  0  0  0  0
   -0.7458    2.9333    0.0000 C   0  0  0  0  0  0  0  0  0  0  0  0
   -0.4458    1.3958    0.0000 C   0  0  0  0  0  0  0  0  0  0  0  0
   -1.6208    1.6333    0.0000 N   0  0  0  0  0  0  0  0  0  0  0  0
   -0.8625    0.9500    0.0000 N   0  0  0  0  0  0  0  0  0  0  0  0
    0.1792    1.2500    0.0000 S   0  0  0  0  0  0  0  0  0  0  0  0
   -1.4458    1.0708    0.0000 C   0  0  0  0  0  0  0  0  0  0  0  0
    1.1542    1.5708    0.0000 C   0  0  0  0  0  0  0  0  0  0  0  0
    1.3375    1.0125    0.0000 O   0  0  0  0  0  0  0  0  0  0  0  0
    0.5792    1.6958    0.0000 C   0  0  0  0  0  0  0  0  0  0  0  0
    1.5542    2.0208    0.0000 N   0  0  0  0  0  0  0  0  0  0  0  0
    4.3000    2.0333    0.0000 C   0  0  0  0  0  0  0  0  0  0  0  0
    0.2542    2.6125    0.0000 C   0  0  0  0  0  0  0  0  0  0  0  0
    3.1167    2.2333    0.0000 C   0  0  0  0  0  0  0  0  0  0  0  0
   -0.5625    3.4958    0.0000 C   0  0  0  0  0  0  0  0  0  0  0  0
    4.1000    2.5958    0.0000 C   0  0  0  0  0  0  0  0  0  0  0  0
    3.9167    1.5708    0.0000 C   0  0  0  0  0  0  0  0  0  0  0  0
    3.5167    2.6958    0.0000 C   0  0  0  0  0  0  0  0  0  0  0  0
    3.3375    1.6708    0.0000 C   0  0  0  0  0  0  0  0  0  0  0  0
    2.1292    1.8958    0.0000 C   0  0  0  0  0  0  0  0  0  0  0  0
    4.9167    1.9583    0.0000 O   0  0  0  0  0  0  0  0  0  0  0  0
    2.5375    2.3500    0.0000 C   0  0  0  0  0  0  0  0  0  0  0  0
    5.2792    2.4333    0.0000 C   0  0  0  0  0  0  0  0  0  0  0  0
    0.4375    3.1708    0.0000 C   0  0  0  0  0  0  0  0  0  0  0  0
    0.0375    3.6333    0.0000 C   0  0  0  0  0  0  0  0  0  0  0  0
  2  1  2  0  0  0  0
  3  1  1  0  0  0  0
  4  2  1  0  0  0  0
  5  3  1  0  0  0  0
  6  2  1  0  0  0  0
  7  1  1  0  0  0  0
  8 10  1  0  0  0  0
  9  6  1  0  0  0  0
 10  7  2  0  0  0  0
 11 13  1  0  0  0  0
 12 11  2  0  0  0  0
 13  9  1  0  0  0  0
 14 11  1  0  0  0  0
 15 20  2  0  0  0  0
 16  4  1  0  0  0  0
 17 25  1  0  0  0  0
 18  5  1  0  0  0  0
 19 21  2  0  0  0  0
 20 22  1  0  0  0  0
 21 17  1  0  0  0  0
 22 17  2  0  0  0  0
 23 14  1  0  0  0  0
 24 15  1  0  0  0  0
 25 23  1  0  0  0  0
 26 24  1  0  0  0  0
 27 16  1  0  0  0  0
 28 18  1  0  0  0  0
  5  4  2  0  0  0  0
  8  6  2  0  0  0  0
 28 27  1  0  0  0  0
 19 15  1  0  0  0  0
M  END
>  <Code> (P7213330070)
P7213330070

>  <Number of H-Donors> (P7213330070)
1

>  <Number of H-Acceptors> (P7213330070)
5

>  <Number of Rotatable bonds> (P7213330070)
7

>  <CLogP> (P7213330070)
4.500000000000000e+000

>  <Number of Rings> (P7213330070)
4

>  <PSA> (P7213330070)
1.177000000000000e+002

$$$$

  -ISIS-  11102212342D

 30 32  0  0  0  0  0  0  0  0999 V2000
    7.6042   -6.8875    0.0000 C   0  0  0  0  0  0  0  0  0  0  0  0
    7.3500   -6.1042    0.0000 C   0  0  0  0  0  0  0  0  0  0  0  0
    6.9292   -7.3667    0.0000 S   0  0  0  0  0  0  0  0  0  0  0  0
    6.5292   -6.1042    0.0000 C   0  0  0  0  0  0  0  0  0  0  0  0
    6.2625   -6.8792    0.0000 C   0  0  0  0  0  0  0  0  0  0  0  0
    7.9042   -5.4917    0.0000 C   0  0  0  0  0  0  0  0  0  0  0  0
    8.4042   -7.0625    0.0000 N   0  0  0  0  0  0  0  0  0  0  0  0
    8.7042   -5.6667    0.0000 N   0  0  0  0  0  0  0  0  0  0  0  0
    4.6042   -8.2750    0.0000 C   0  0  0  0  0  0  0  0  0  0  0  0
    5.4292   -8.2750    0.0000 C   0  0  0  0  0  0  0  0  0  0  0  0
    8.9625   -6.4500    0.0000 C   0  0  0  0  0  0  0  0  0  0  0  0
    5.8417   -7.5542    0.0000 O   0  0  0  0  0  0  0  0  0  0  0  0
    4.1917   -7.5625    0.0000 O   0  0  0  0  0  0  0  0  0  0  0  0
    7.6542   -4.7000    0.0000 N   0  0  0  0  0  0  0  0  0  0  0  0
    4.1917   -8.9875    0.0000 O   0  0  0  0  0  0  0  0  0  0  0  0
    5.8417   -8.9875    0.0000 O   0  0  0  0  0  0  0  0  0  0  0  0
    4.1917   -3.1667    0.0000 C   0  0  0  0  0  0  0  0  0  0  0  0
    5.9875   -5.4792    0.0000 C   0  0  0  0  0  0  0  0  0  0  0  0
    5.8000   -3.5417    0.0000 C   0  0  0  0  0  0  0  0  0  0  0  0
    5.4542   -7.0417    0.0000 C   0  0  0  0  0  0  0  0  0  0  0  0
    4.4417   -3.9625    0.0000 C   0  0  0  0  0  0  0  0  0  0  0  0
    4.7542   -2.5667    0.0000 C   0  0  0  0  0  0  0  0  0  0  0  0
    5.2375   -4.1417    0.0000 C   0  0  0  0  0  0  0  0  0  0  0  0
    5.5542   -2.7542    0.0000 C   0  0  0  0  0  0  0  0  0  0  0  0
    6.8500   -4.5167    0.0000 C   0  0  0  0  0  0  0  0  0  0  0  0
    3.3875   -2.9792    0.0000 O   0  0  0  0  0  0  0  0  0  0  0  0
    6.6042   -3.7250    0.0000 C   0  0  0  0  0  0  0  0  0  0  0  0
    3.1417   -2.1792    0.0000 C   0  0  0  0  0  0  0  0  0  0  0  0
    5.1792   -5.6417    0.0000 C   0  0  0  0  0  0  0  0  0  0  0  0
    4.9125   -6.4167    0.0000 C   0  0  0  0  0  0  0  0  0  0  0  0
  2  1  2  0  0  0  0
  3  1  1  0  0  0  0
  4  2  1  0  0  0  0
  5  3  1  0  0  0  0
  6  2  1  0  0  0  0
  7  1  1  0  0  0  0
  8  6  2  0  0  0  0
 10  9  1  0  0  0  0
 11  7  2  0  0  0  0
 12 10  2  0  0  0  0
 13  9  2  0  0  0  0
 14  6  1  0  0  0  0
 15  9  1  0  0  0  0
 16 10  1  0  0  0  0
 17 22  2  0  0  0  0
 18  4  1  0  0  0  0
 19 27  1  0  0  0  0
 20  5  1  0  0  0  0
 21 23  2  0  0  0  0
 22 24  1  0  0  0  0
 23 19  1  0  0  0  0
 24 19  2  0  0  0  0
 25 14  1  0  0  0  0
 26 17  1  0  0  0  0
 27 25  1  0  0  0  0
 28 26  1  0  0  0  0
 29 18  1  0  0  0  0
 30 20  1  0  0  0  0
  5  4  2  0  0  0  0
 11  8  1  0  0  0  0
 30 29  1  0  0  0  0
 21 17  1  0  0  0  0
M  END
>  <Code> (P7213330066)
P7213330066

>  <Saltdata> (P7213330066)
(COOH)2

>  <Number of H-Donors> (P7213330066)
3

>  <Number of H-Acceptors> (P7213330066)
8

>  <Number of Rotatable bonds> (P7213330066)
6

>  <CLogP> (P7213330066)
3.800000000000000e+000

>  <Number of Rings> (P7213330066)
4

>  <PSA> (P7213330066)
1.499000000000000e+002

$$$$

  -ISIS-  11102212342D

 22 24  0  0  0  0  0  0  0  0999 V2000
    3.7667   -2.6667    0.0000 C   0  0  0  0  0  0  0  0  0  0  0  0
    3.5292   -1.9167    0.0000 C   0  0  0  0  0  0  0  0  0  0  0  0
    3.1375   -3.1042    0.0000 S   0  0  0  0  0  0  0  0  0  0  0  0
    2.7375   -1.9167    0.0000 C   0  0  0  0  0  0  0  0  0  0  0  0
    2.5292   -2.6875    0.0000 C   0  0  0  0  0  0  0  0  0  0  0  0
    4.0500   -1.3375    0.0000 C   0  0  0  0  0  0  0  0  0  0  0  0
    4.5167   -2.8167    0.0000 N   0  0  0  0  0  0  0  0  0  0  0  0
    4.8042   -1.5042    0.0000 N   0  0  0  0  0  0  0  0  0  0  0  0
    5.0375   -2.2500    0.0000 C   0  0  0  0  0  0  0  0  0  0  0  0
    3.8167   -0.6042    0.0000 N   0  0  0  0  0  0  0  0  0  0  0  0
    0.5542    0.8208    0.0000 C   0  0  0  0  0  0  0  0  0  0  0  0
    2.2667   -1.3000    0.0000 C   0  0  0  0  0  0  0  0  0  0  0  0
    2.0667    0.4708    0.0000 C   0  0  0  0  0  0  0  0  0  0  0  0
    1.7792   -2.9542    0.0000 C   0  0  0  0  0  0  0  0  0  0  0  0
    0.7875    0.0833    0.0000 C   0  0  0  0  0  0  0  0  0  0  0  0
    1.0792    1.3833    0.0000 C   0  0  0  0  0  0  0  0  0  0  0  0
    1.5542   -0.0917    0.0000 C   0  0  0  0  0  0  0  0  0  0  0  0
    1.8375    1.2125    0.0000 C   0  0  0  0  0  0  0  0  0  0  0  0
    3.0500   -0.4292    0.0000 C   0  0  0  0  0  0  0  0  0  0  0  0
   -0.2208    1.0000    0.0000 O   0  0  0  0  0  0  0  0  0  0  0  0
    2.8292    0.3000    0.0000 C   0  0  0  0  0  0  0  0  0  0  0  0
   -0.4458    1.7500    0.0000 C   0  0  0  0  0  0  0  0  0  0  0  0
  2  1  2  0  0  0  0
  3  1  1  0  0  0  0
  4  2  1  0  0  0  0
  5  3  1  0  0  0  0
  6  2  1  0  0  0  0
  7  1  1  0  0  0  0
  8  9  1  0  0  0  0
  9  7  2  0  0  0  0
 10  6  1  0  0  0  0
 11 16  1  0  0  0  0
 12  4  1  0  0  0  0
 13 21  1  0  0  0  0
 14  5  1  0  0  0  0
 15 17  1  0  0  0  0
 16 18  2  0  0  0  0
 17 13  2  0  0  0  0
 18 13  1  0  0  0  0
 19 10  1  0  0  0  0
 20 11  1  0  0  0  0
 21 19  1  0  0  0  0
 22 20  1  0  0  0  0
  5  4  2  0  0  0  0
  8  6  2  0  0  0  0
 15 11  2  0  0  0  0
M  END
>  <Code> (P7213330064)
P7213330064

>  <Number of H-Donors> (P7213330064)
1

>  <Number of H-Acceptors> (P7213330064)
4

>  <Number of Rotatable bonds> (P7213330064)
5

>  <CLogP> (P7213330064)
3.500000000000000e+000

>  <Number of Rings> (P7213330064)
3

>  <PSA> (P7213330064)
7.530000000000000e+001

$$$$

  -ISIS-  11102212342D

 17 19  0  0  0  0  0  0  0  0999 V2000
    5.6375   -5.8542    0.0000 C   0  0  0  0  0  0  0  0  0  0  0  0
    6.3500   -5.4417    0.0000 C   0  0  0  0  0  0  0  0  0  0  0  0
    5.6375   -6.6792    0.0000 C   0  0  0  0  0  0  0  0  0  0  0  0
    7.0667   -5.8542    0.0000 N   0  0  0  0  0  0  0  0  0  0  0  0
    6.3500   -7.0917    0.0000 N   0  0  0  0  0  0  0  0  0  0  0  0
    4.8542   -6.9292    0.0000 S   0  0  0  0  0  0  0  0  0  0  0  0
    6.3500   -4.6167    0.0000 O   0  0  0  0  0  0  0  0  0  0  0  0
    7.0667   -6.6792    0.0000 C   0  0  0  0  0  0  0  0  0  0  0  0
    4.3667   -6.2667    0.0000 C   0  0  0  0  0  0  0  0  0  0  0  0
    4.8542   -5.6000    0.0000 C   0  0  0  0  0  0  0  0  0  0  0  0
    7.0625   -4.2042    0.0000 C   0  0  0  0  0  0  0  0  0  0  0  0
    7.7750   -4.6167    0.0000 C   0  0  0  0  0  0  0  0  0  0  0  0
    8.4917   -4.2042    0.0000 C   0  0  0  0  0  0  0  0  0  0  0  0
    7.7750   -2.9625    0.0000 C   0  0  0  0  0  0  0  0  0  0  0  0
    7.0625   -3.3750    0.0000 C   0  0  0  0  0  0  0  0  0  0  0  0
    8.4917   -3.3750    0.0000 C   0  0  0  0  0  0  0  0  0  0  0  0
    9.2125   -4.6250    0.0000 C   0  0  0  0  0  0  0  0  0  0  0  0
  2  1  1  0  0  0  0
  3  1  2  0  0  0  0
  4  2  2  0  0  0  0
  5  3  1  0  0  0  0
  6  3  1  0  0  0  0
  7  2  1  0  0  0  0
  8  5  2  0  0  0  0
  9 10  2  0  0  0  0
 10  1  1  0  0  0  0
 11  7  1  0  0  0  0
 12 11  2  0  0  0  0
 13 12  1  0  0  0  0
 14 15  2  0  0  0  0
 15 11  1  0  0  0  0
 16 14  1  0  0  0  0
 17 13  1  0  0  0  0
  9  6  1  0  0  0  0
  4  8  1  0  0  0  0
 13 16  2  0  0  0  0
M  END
>  <Code> (P7213330049)
P7213330049

>  <Number of H-Donors> (P7213330049)
0

>  <Number of H-Acceptors> (P7213330049)
3

>  <Number of Rotatable bonds> (P7213330049)
2

>  <CLogP> (P7213330049)
3.700000000000000e+000

>  <Number of Rings> (P7213330049)
3

>  <PSA> (P7213330049)
6.330000000000000e+001

$$$$

  -ISIS-  11102212342D

 15 17  0  0  0  0  0  0  0  0999 V2000
    4.3375   -1.4042    0.0000 N   0  0  0  0  0  0  0  0  0  0  0  0
    3.6250   -2.3917    0.0000 N   0  0  3  0  0  0  0  0  0  0  0  0
    3.6250   -1.6417    0.0000 C   0  0  0  0  0  0  0  0  0  0  0  0
    4.7792   -2.0125    0.0000 C   0  0  0  0  0  0  0  0  0  0  0  0
    4.3417   -2.6167    0.0000 C   0  0  0  0  0  0  0  0  0  0  0  0
    2.9667   -2.7750    0.0000 C   0  0  0  0  0  0  0  0  0  0  0  0
    2.9667   -1.2667    0.0000 C   0  0  0  0  0  0  0  0  0  0  0  0
    5.5250   -2.0042    0.0000 C   0  0  0  0  0  0  0  0  0  0  0  0
    2.3167   -2.4000    0.0000 C   0  0  0  0  0  0  0  0  0  0  0  0
    2.3167   -1.6417    0.0000 C   0  0  0  0  0  0  0  0  0  0  0  0
    5.9042   -2.6542    0.0000 C   0  0  0  0  0  0  0  0  0  0  0  0
    5.9000   -1.3542    0.0000 C   0  0  0  0  0  0  0  0  0  0  0  0
    6.6417   -1.3500    0.0000 C   0  0  0  0  0  0  0  0  0  0  0  0
    6.6542   -2.6500    0.0000 C   0  0  0  0  0  0  0  0  0  0  0  0
    7.0250   -2.0000    0.0000 C   0  0  0  0  0  0  0  0  0  0  0  0
  2  3  1  0  0  0  0
  3  1  2  0  0  0  0
  4  1  1  0  0  0  0
  5  4  2  0  0  0  0
  6  2  1  0  0  0  0
  7  3  1  0  0  0  0
  8  4  1  0  0  0  0
  9 10  1  0  0  0  0
 10  7  2  0  0  0  0
 11  8  2  0  0  0  0
 12  8  1  0  0  0  0
 13 12  2  0  0  0  0
 14 11  1  0  0  0  0
 15 13  1  0  0  0  0
  2  5  1  0  0  0  0
  6  9  2  0  0  0  0
 14 15  2  0  0  0  0
M  END
>  <Code> (P7212970018)
P7212970018

>  <Number of H-Donors> (P7212970018)
0

>  <Number of H-Acceptors> (P7212970018)
1

>  <Number of Rotatable bonds> (P7212970018)
1

>  <CLogP> (P7212970018)
2.500000000000000e+000

>  <Number of Rings> (P7212970018)
3

>  <PSA> (P7212970018)
1.730000000000000e+001

$$$$

  -ISIS-  11102212342D

 19 22  0  0  0  0  0  0  0  0999 V2000
    6.1542  -10.5167    0.0000 C   0  0  0  0  0  0  0  0  0  0  0  0
    6.3667  -11.3042    0.0000 C   0  0  0  0  0  0  0  0  0  0  0  0
    6.7375   -9.9375    0.0000 C   0  0  0  0  0  0  0  0  0  0  0  0
    7.5250  -10.1500    0.0000 N   0  0  3  0  0  0  0  0  0  0  0  0
    5.3292  -10.4750    0.0000 C   0  0  0  0  0  0  0  0  0  0  0  0
    7.1667  -11.5167    0.0000 N   0  0  0  0  0  0  0  0  0  0  0  0
    5.6792  -11.7542    0.0000 S   0  0  0  0  0  0  0  0  0  0  0  0
    5.0417  -11.2417    0.0000 C   0  0  0  0  0  0  0  0  0  0  0  0
    7.4667   -8.8167    0.0000 N   0  0  0  0  0  0  0  0  0  0  0  0
    7.9750   -9.4542    0.0000 N   0  0  0  0  0  0  0  0  0  0  0  0
    6.6917   -9.1125    0.0000 N   0  0  0  0  0  0  0  0  0  0  0  0
    7.7375  -10.9500    0.0000 C   0  0  0  0  0  0  0  0  0  0  0  0
    4.5417  -10.2250    0.0000 C   0  0  0  0  0  0  0  0  0  0  0  0
    4.2417  -11.4750    0.0000 C   0  0  0  0  0  0  0  0  0  0  0  0
    3.8292  -10.6375    0.0000 C   0  0  0  0  0  0  0  0  0  0  0  0
    4.5417   -9.4042    0.0000 C   0  0  0  0  0  0  0  0  0  0  0  0
    3.8292   -8.9917    0.0000 C   0  0  0  0  0  0  0  0  0  0  0  0
    3.1167  -10.2250    0.0000 C   0  0  0  0  0  0  0  0  0  0  0  0
    3.1125   -9.4042    0.0000 C   0  0  0  0  0  0  0  0  0  0  0  0
  2  1  2  0  0  0  0
  3  1  1  0  0  0  0
  4  3  1  0  0  0  0
  5  1  1  0  0  0  0
  6  2  1  0  0  0  0
  7  2  1  0  0  0  0
  8  5  2  0  0  0  0
  9 11  1  0  0  0  0
 10  4  1  0  0  0  0
 11  3  2  0  0  0  0
 12  4  1  0  0  0  0
 13  5  1  0  0  0  0
 14  8  1  0  0  0  0
 15 13  1  0  0  0  0
 16 13  2  0  0  0  0
 17 16  1  0  0  0  0
 18 15  2  0  0  0  0
 19 17  2  0  0  0  0
  7  8  1  0  0  0  0
 12  6  2  0  0  0  0
 10  9  2  0  0  0  0
 19 18  1  0  0  0  0
M  END
>  <Code> (P7212090955)
P7212090955

>  <Number of H-Donors> (P7212090955)
0

>  <Number of H-Acceptors> (P7212090955)
4

>  <Number of Rotatable bonds> (P7212090955)
1

>  <CLogP> (P7212090955)
1.700000000000000e+000

>  <Number of Rings> (P7212090955)
4

>  <PSA> (P7212090955)
8.420000000000000e+001

$$$$

  -ISIS-  11102212342D

 29 33  0  0  0  0  0  0  0  0999 V2000
   12.0542   -4.2167    0.0000 N   0  0  3  0  0  0  0  0  0  0  0  0
   12.2292   -3.4042    0.0000 C   0  0  0  0  0  0  0  0  0  0  0  0
   12.7667   -4.6292    0.0000 C   0  0  0  0  0  0  0  0  0  0  0  0
    9.9167   -7.1042    0.0000 C   0  0  0  0  0  0  0  0  0  0  0  0
    9.9167   -7.9292    0.0000 C   0  0  0  0  0  0  0  0  0  0  0  0
    9.1292   -6.8542    0.0000 C   0  0  0  0  0  0  0  0  0  0  0  0
    9.1292   -8.1875    0.0000 S   0  0  0  0  0  0  0  0  0  0  0  0
    8.6500   -7.5250    0.0000 C   0  0  0  0  0  0  0  0  0  0  0  0
   13.3875   -4.0667    0.0000 C   0  0  0  0  0  0  0  0  0  0  0  0
   13.0417   -3.3250    0.0000 C   0  0  0  0  0  0  0  0  0  0  0  0
   10.6292   -6.6917    0.0000 C   0  0  0  0  0  0  0  0  0  0  0  0
   10.6292   -8.3417    0.0000 N   0  0  0  0  0  0  0  0  0  0  0  0
   11.3417   -7.1042    0.0000 N   0  0  0  0  0  0  0  0  0  0  0  0
   11.3417   -7.9292    0.0000 C   0  0  0  0  0  0  0  0  0  0  0  0
   11.6792   -2.7917    0.0000 O   0  0  0  0  0  0  0  0  0  0  0  0
   12.8542   -5.4542    0.0000 O   0  0  0  0  0  0  0  0  0  0  0  0
    7.8250   -7.4875    0.0000 C   0  0  0  0  0  0  0  0  0  0  0  0
   11.3417   -4.6292    0.0000 C   0  0  0  0  0  0  0  0  0  0  0  0
   10.6292   -5.8667    0.0000 S   0  0  0  0  0  0  0  0  0  0  0  0
   11.3417   -5.4542    0.0000 C   0  0  0  0  0  0  0  0  0  0  0  0
   13.5250   -2.6542    0.0000 C   0  0  0  0  0  0  0  0  0  0  0  0
   14.2042   -4.1500    0.0000 C   0  0  0  0  0  0  0  0  0  0  0  0
    7.4375   -6.7542    0.0000 C   0  0  0  0  0  0  0  0  0  0  0  0
    7.3792   -8.1792    0.0000 C   0  0  0  0  0  0  0  0  0  0  0  0
   14.6875   -3.4750    0.0000 C   0  0  0  0  0  0  0  0  0  0  0  0
   14.3500   -2.7292    0.0000 C   0  0  0  0  0  0  0  0  0  0  0  0
    6.6125   -6.7167    0.0000 C   0  0  0  0  0  0  0  0  0  0  0  0
    6.5542   -8.1500    0.0000 C   0  0  0  0  0  0  0  0  0  0  0  0
    6.1667   -7.4250    0.0000 C   0  0  0  0  0  0  0  0  0  0  0  0
  2  1  1  0  0  0  0
  3  1  1  0  0  0  0
  4 11  1  0  0  0  0
  5  4  2  0  0  0  0
  6  4  1  0  0  0  0
  7  5  1  0  0  0  0
  8  6  2  0  0  0  0
  9  3  1  0  0  0  0
 10  2  1  0  0  0  0
 11 19  1  0  0  0  0
 12 14  2  0  0  0  0
 13 11  2  0  0  0  0
 14 13  1  0  0  0  0
 15  2  2  0  0  0  0
 16  3  2  0  0  0  0
 17  8  1  0  0  0  0
 18  1  1  0  0  0  0
 19 20  1  0  0  0  0
 20 18  1  0  0  0  0
 21 10  1  0  0  0  0
 22  9  1  0  0  0  0
 23 17  1  0  0  0  0
 24 17  2  0  0  0  0
 25 22  2  0  0  0  0
 26 21  2  0  0  0  0
 27 23  2  0  0  0  0
 28 24  1  0  0  0  0
 29 28  2  0  0  0  0
  9 10  2  0  0  0  0
 25 26  1  0  0  0  0
 12  5  1  0  0  0  0
  7  8  1  0  0  0  0
 27 29  1  0  0  0  0
M  END
>  <Code> (P7212090676)
P7212090676

>  <Number of H-Donors> (P7212090676)
0

>  <Number of H-Acceptors> (P7212090676)
5

>  <Number of Rotatable bonds> (P7212090676)
5

>  <CLogP> (P7212090676)
4.700000000000000e+000

>  <Number of Rings> (P7212090676)
5

>  <PSA> (P7212090676)
1.167000000000000e+002

$$$$

  -ISIS-  11102212342D

 24 27  0  0  0  0  0  0  0  0999 V2000
    7.0917   -7.1292    0.0000 C   0  0  0  0  0  0  0  0  0  0  0  0
    7.0917   -7.9542    0.0000 C   0  0  0  0  0  0  0  0  0  0  0  0
    6.3042   -6.8792    0.0000 C   0  0  0  0  0  0  0  0  0  0  0  0
    6.3042   -8.2125    0.0000 S   0  0  0  0  0  0  0  0  0  0  0  0
    5.8250   -7.5500    0.0000 C   0  0  0  0  0  0  0  0  0  0  0  0
    7.8042   -6.7167    0.0000 C   0  0  0  0  0  0  0  0  0  0  0  0
    7.8042   -8.3667    0.0000 N   0  0  0  0  0  0  0  0  0  0  0  0
    8.5167   -7.1292    0.0000 N   0  0  0  0  0  0  0  0  0  0  0  0
    7.8042   -5.8917    0.0000 O   0  0  0  0  0  0  0  0  0  0  0  0
    8.5167   -7.9542    0.0000 C   0  0  0  0  0  0  0  0  0  0  0  0
    5.0042   -7.6375    0.0000 C   0  0  0  0  0  0  0  0  0  0  0  0
    8.5167   -5.4792    0.0000 C   0  0  0  0  0  0  0  0  0  0  0  0
    9.2292   -5.8917    0.0000 C   0  0  0  0  0  0  0  0  0  0  0  0
    9.9417   -5.4792    0.0000 C   0  0  0  0  0  0  0  0  0  0  0  0
   10.6667   -5.9042    0.0000 O   0  0  0  0  0  0  0  0  0  0  0  0
    9.2292   -4.2417    0.0000 C   0  0  0  0  0  0  0  0  0  0  0  0
    8.5167   -4.6542    0.0000 C   0  0  0  0  0  0  0  0  0  0  0  0
    4.5167   -6.9667    0.0000 C   0  0  0  0  0  0  0  0  0  0  0  0
    4.6667   -8.3917    0.0000 C   0  0  0  0  0  0  0  0  0  0  0  0
    9.9417   -4.6542    0.0000 C   0  0  0  0  0  0  0  0  0  0  0  0
   10.6625   -6.7292    0.0000 C   0  0  0  0  0  0  0  0  0  0  0  0
    3.8417   -8.4792    0.0000 C   0  0  0  0  0  0  0  0  0  0  0  0
    3.6917   -7.0542    0.0000 C   0  0  0  0  0  0  0  0  0  0  0  0
    3.3542   -7.8042    0.0000 C   0  0  0  0  0  0  0  0  0  0  0  0
  2  1  2  0  0  0  0
  3  1  1  0  0  0  0
  4  2  1  0  0  0  0
  5  3  2  0  0  0  0
  6  1  1  0  0  0  0
  7  2  1  0  0  0  0
  8  6  2  0  0  0  0
  9  6  1  0  0  0  0
 10  8  1  0  0  0  0
 11  5  1  0  0  0  0
 12  9  1  0  0  0  0
 13 12  2  0  0  0  0
 14 13  1  0  0  0  0
 15 14  1  0  0  0  0
 16 17  2  0  0  0  0
 17 12  1  0  0  0  0
 18 11  1  0  0  0  0
 19 11  2  0  0  0  0
 20 16  1  0  0  0  0
 21 15  1  0  0  0  0
 22 19  1  0  0  0  0
 23 18  2  0  0  0  0
 24 22  2  0  0  0  0
  4  5  1  0  0  0  0
 10  7  2  0  0  0  0
 14 20  2  0  0  0  0
 23 24  1  0  0  0  0
M  END
>  <Code> (P7212090490)
P7212090490

>  <Number of H-Donors> (P7212090490)
0

>  <Number of H-Acceptors> (P7212090490)
4

>  <Number of Rotatable bonds> (P7212090490)
4

>  <CLogP> (P7212090490)
5.000000000000000e+000

>  <Number of Rings> (P7212090490)
4

>  <PSA> (P7212090490)
7.250000000000000e+001

$$$$

  -ISIS-  11102212342D

 24 27  0  0  0  0  0  0  0  0999 V2000
    9.9542   -6.8542    0.0000 C   0  0  0  0  0  0  0  0  0  0  0  0
    9.9542   -7.6792    0.0000 C   0  0  0  0  0  0  0  0  0  0  0  0
    9.1667   -6.6000    0.0000 C   0  0  0  0  0  0  0  0  0  0  0  0
    9.1667   -7.9292    0.0000 S   0  0  0  0  0  0  0  0  0  0  0  0
    8.6875   -7.2667    0.0000 C   0  0  0  0  0  0  0  0  0  0  0  0
   10.6667   -6.4417    0.0000 C   0  0  0  0  0  0  0  0  0  0  0  0
   10.6667   -8.0917    0.0000 N   0  0  0  0  0  0  0  0  0  0  0  0
   11.3792   -6.8542    0.0000 N   0  0  0  0  0  0  0  0  0  0  0  0
   10.6667   -5.6167    0.0000 N   0  0  0  0  0  0  0  0  0  0  0  0
   11.3792   -7.6792    0.0000 C   0  0  0  0  0  0  0  0  0  0  0  0
    7.8667   -7.3542    0.0000 C   0  0  0  0  0  0  0  0  0  0  0  0
   11.3792   -5.2042    0.0000 C   0  0  0  0  0  0  0  0  0  0  0  0
   12.8125   -4.3750    0.0000 C   0  0  0  0  0  0  0  0  0  0  0  0
   11.3792   -4.3750    0.0000 C   0  0  0  0  0  0  0  0  0  0  0  0
   12.0917   -5.6167    0.0000 C   0  0  0  0  0  0  0  0  0  0  0  0
   12.0917   -3.9625    0.0000 C   0  0  0  0  0  0  0  0  0  0  0  0
   12.8125   -5.2042    0.0000 C   0  0  0  0  0  0  0  0  0  0  0  0
   13.5375   -3.9542    0.0000 O   0  0  0  0  0  0  0  0  0  0  0  0
    7.5292   -8.1125    0.0000 C   0  0  0  0  0  0  0  0  0  0  0  0
    7.3792   -6.6875    0.0000 C   0  0  0  0  0  0  0  0  0  0  0  0
   13.5417   -3.1250    0.0000 C   0  0  0  0  0  0  0  0  0  0  0  0
    6.7042   -8.2000    0.0000 C   0  0  0  0  0  0  0  0  0  0  0  0
    6.5542   -6.7750    0.0000 C   0  0  0  0  0  0  0  0  0  0  0  0
    6.2167   -7.5292    0.0000 C   0  0  0  0  0  0  0  0  0  0  0  0
  2  1  2  0  0  0  0
  3  1  1  0  0  0  0
  4  2  1  0  0  0  0
  5  3  2  0  0  0  0
  6  1  1  0  0  0  0
  7  2  1  0  0  0  0
  8  6  2  0  0  0  0
  9  6  1  0  0  0  0
 10  8  1  0  0  0  0
 11  5  1  0  0  0  0
 12  9  1  0  0  0  0
 13 17  2  0  0  0  0
 14 12  1  0  0  0  0
 15 12  2  0  0  0  0
 16 14  2  0  0  0  0
 17 15  1  0  0  0  0
 18 13  1  0  0  0  0
 19 11  2  0  0  0  0
 20 11  1  0  0  0  0
 21 18  1  0  0  0  0
 22 19  1  0  0  0  0
 23 20  2  0  0  0  0
 24 23  1  0  0  0  0
  4  5  1  0  0  0  0
 10  7  2  0  0  0  0
 13 16  1  0  0  0  0
 24 22  2  0  0  0  0
M  END
>  <Code> (P7212090489)
P7212090489

>  <Number of H-Donors> (P7212090489)
1

>  <Number of H-Acceptors> (P7212090489)
4

>  <Number of Rotatable bonds> (P7212090489)
4

>  <CLogP> (P7212090489)
4.400000000000000e+000

>  <Number of Rings> (P7212090489)
4

>  <PSA> (P7212090489)
7.530000000000000e+001

$$$$

  -ISIS-  11102212342D

 31 34  0  0  0  0  0  0  0  0999 V2000
    6.4042   -5.0542    0.0000 C   0  0  0  0  0  0  0  0  0  0  0  0
    5.6875   -4.6417    0.0000 C   0  0  0  0  0  0  0  0  0  0  0  0
    6.4125   -7.5292    0.0000 C   0  0  0  0  0  0  0  0  0  0  0  0
    6.2292   -5.8625    0.0000 S   0  0  0  0  0  0  0  0  0  0  0  0
    6.4125   -8.3542    0.0000 C   0  0  0  0  0  0  0  0  0  0  0  0
    5.0667   -5.2000    0.0000 C   0  0  0  0  0  0  0  0  0  0  0  0
    5.6292   -7.2792    0.0000 C   0  0  0  0  0  0  0  0  0  0  0  0
    5.6292   -8.6125    0.0000 S   0  0  0  0  0  0  0  0  0  0  0  0
    5.1417   -7.9500    0.0000 C   0  0  0  0  0  0  0  0  0  0  0  0
    5.4125   -5.9417    0.0000 C   0  0  0  0  0  0  0  0  0  0  0  0
    7.1167   -4.6417    0.0000 N   0  0  0  0  0  0  0  0  0  0  0  0
    7.1250   -7.1167    0.0000 C   0  0  0  0  0  0  0  0  0  0  0  0
    5.6042   -3.8167    0.0000 C   0  0  0  0  0  0  0  0  0  0  0  0
    7.1250   -8.7667    0.0000 N   0  0  0  0  0  0  0  0  0  0  0  0
    7.8417   -7.5292    0.0000 N   0  0  0  0  0  0  0  0  0  0  0  0
    7.8375   -5.0542    0.0000 C   0  0  0  0  0  0  0  0  0  0  0  0
    7.1250   -6.2917    0.0000 S   0  0  0  0  0  0  0  0  0  0  0  0
    7.8417   -8.3542    0.0000 C   0  0  0  0  0  0  0  0  0  0  0  0
    4.3167   -7.9125    0.0000 C   0  0  0  0  0  0  0  0  0  0  0  0
    6.2750   -3.3292    0.0000 O   0  0  0  0  0  0  0  0  0  0  0  0
    8.5500   -4.6417    0.0000 O   0  0  0  0  0  0  0  0  0  0  0  0
    7.8375   -5.8792    0.0000 C   0  0  0  0  0  0  0  0  0  0  0  0
    4.8417   -3.4750    0.0000 O   0  0  0  0  0  0  0  0  0  0  0  0
    4.2542   -5.0375    0.0000 C   0  0  0  0  0  0  0  0  0  0  0  0
    5.0000   -6.6667    0.0000 C   0  0  0  0  0  0  0  0  0  0  0  0
    3.8750   -8.6125    0.0000 C   0  0  0  0  0  0  0  0  0  0  0  0
    3.9375   -7.1792    0.0000 C   0  0  0  0  0  0  0  0  0  0  0  0
    4.1667   -3.9542    0.0000 C   0  0  0  0  0  0  0  0  0  0  0  0
    3.0500   -8.5792    0.0000 C   0  0  0  0  0  0  0  0  0  0  0  0
    3.1042   -7.1500    0.0000 C   0  0  0  0  0  0  0  0  0  0  0  0
    2.6667   -7.8500    0.0000 C   0  0  0  0  0  0  0  0  0  0  0  0
  2  1  2  0  0  0  0
  3 12  1  0  0  0  0
  4  1  1  0  0  0  0
  5  3  2  0  0  0  0
  6  2  1  0  0  0  0
  7  3  1  0  0  0  0
  8  5  1  0  0  0  0
  9  7  2  0  0  0  0
 10  4  1  0  0  0  0
 11  1  1  0  0  0  0
 12 17  1  0  0  0  0
 13  2  1  0  0  0  0
 14 18  2  0  0  0  0
 15 12  2  0  0  0  0
 16 11  1  0  0  0  0
 17 22  1  0  0  0  0
 18 15  1  0  0  0  0
 19  9  1  0  0  0  0
 20 13  2  0  0  0  0
 21 16  2  0  0  0  0
 22 16  1  0  0  0  0
 23 13  1  0  0  0  0
 24  6  1  0  0  0  0
 25 10  1  0  0  0  0
 26 19  1  0  0  0  0
 27 19  2  0  0  0  0
 28 23  1  0  0  0  0
 29 26  2  0  0  0  0
 30 27  1  0  0  0  0
 31 30  2  0  0  0  0
 10  6  2  0  0  0  0
  5 14  1  0  0  0  0
  9  8  1  0  0  0  0
 31 29  1  0  0  0  0
M  END
>  <Code> (P7212090090)
P7212090090

>  <Number of H-Donors> (P7212090090)
1

>  <Number of H-Acceptors> (P7212090090)
6

>  <Number of Rotatable bonds> (P7212090090)
7

>  <CLogP> (P7212090090)
4.900000000000000e+000

>  <Number of Rings> (P7212090090)
4

>  <PSA> (P7212090090)
1.630000000000000e+002

$$$$

  -ISIS-  11102212342D

 17 19  0  0  0  0  0  0  0  0999 V2000
    3.7417  -10.6167    0.0000 C   0  0  0  0  0  0  0  0  0  0  0  0
    4.5292   -9.5417    0.0000 N   0  0  0  0  0  0  0  0  0  0  0  0
    5.0125  -10.2125    0.0000 C   0  0  0  0  0  0  0  0  0  0  0  0
    3.7500   -9.7917    0.0000 C   0  0  0  0  0  0  0  0  0  0  0  0
    4.5292  -10.8667    0.0000 S   0  0  0  0  0  0  0  0  0  0  0  0
    2.3125  -10.6167    0.0000 N   0  0  3  0  0  0  0  0  0  0  0  0
    3.0292  -11.0375    0.0000 C   0  0  0  0  0  0  0  0  0  0  0  0
    3.0292   -9.3792    0.0000 C   0  0  0  0  0  0  0  0  0  0  0  0
    2.3125   -9.7875    0.0000 C   0  0  0  0  0  0  0  0  0  0  0  0
    5.8292  -10.2125    0.0000 N   0  0  0  0  0  0  0  0  0  0  0  0
    1.5917  -11.0292    0.0000 C   0  0  0  0  0  0  0  0  0  0  0  0
    0.8792  -10.6167    0.0000 C   0  0  0  0  0  0  0  0  0  0  0  0
    0.8792   -9.7917    0.0000 C   0  0  0  0  0  0  0  0  0  0  0  0
    0.1667  -11.0375    0.0000 C   0  0  0  0  0  0  0  0  0  0  0  0
   -0.5458  -10.6292    0.0000 C   0  0  0  0  0  0  0  0  0  0  0  0
    0.1625   -9.3875    0.0000 C   0  0  0  0  0  0  0  0  0  0  0  0
   -0.5500   -9.8000    0.0000 C   0  0  0  0  0  0  0  0  0  0  0  0
  2  4  1  0  0  0  0
  3  5  1  0  0  0  0
  4  1  2  0  0  0  0
  5  1  1  0  0  0  0
  6  7  1  0  0  0  0
  7  1  1  0  0  0  0
  8  4  1  0  0  0  0
  9  6  1  0  0  0  0
 10  3  1  0  0  0  0
 11  6  1  0  0  0  0
 12 11  1  0  0  0  0
 13 12  2  0  0  0  0
 14 12  1  0  0  0  0
 15 14  2  0  0  0  0
 16 13  1  0  0  0  0
 17 15  1  0  0  0  0
  2  3  2  0  0  0  0
  9  8  1  0  0  0  0
 17 16  2  0  0  0  0
M  END
>  <Code> (P7212060151)
P7212060151

>  <Number of H-Donors> (P7212060151)
1

>  <Number of H-Acceptors> (P7212060151)
3

>  <Number of Rotatable bonds> (P7212060151)
2

>  <CLogP> (P7212060151)
2.000000000000000e+000

>  <Number of Rings> (P7212060151)
3

>  <PSA> (P7212060151)
7.040000000000001e+001

$$$$

  -ISIS-  11102212342D

 19 20  0  0  0  0  0  0  0  0999 V2000
    2.3667   -2.1042    0.0000 N   0  0  3  0  0  0  0  0  0  0  0  0
    0.6042   -2.1125    0.0000 C   0  0  0  0  0  0  0  0  0  0  0  0
    1.4875   -2.6167    0.0000 C   0  0  3  0  0  0  0  0  0  0  0  0
    1.4917   -4.6292    0.0000 N   0  0  0  0  0  0  0  0  0  0  0  0
    1.4875   -3.6167    0.0000 C   0  0  0  0  0  0  0  0  0  0  0  0
   -0.2833   -2.6167    0.0000 C   0  0  0  0  0  0  0  0  0  0  0  0
   -1.1583   -2.1250    0.0000 C   0  0  0  0  0  0  0  0  0  0  0  0
   -1.1625   -1.1042    0.0000 C   0  0  0  0  0  0  0  0  0  0  0  0
    0.6042   -1.1042    0.0000 C   0  0  0  0  0  0  0  0  0  0  0  0
   -0.2833   -0.6042    0.0000 C   0  0  0  0  0  0  0  0  0  0  0  0
   -2.0333   -2.6417    0.0000 O   0  0  0  0  0  0  0  0  0  0  0  0
   -2.0458   -0.6000    0.0000 O   0  0  0  0  0  0  0  0  0  0  0  0
    2.2292   -1.2875    0.0000 C   0  0  0  0  0  0  0  0  0  0  0  0
    3.0792   -2.5000    0.0000 C   0  0  0  0  0  0  0  0  0  0  0  0
   -2.0208   -3.6625    0.0000 C   0  0  0  0  0  0  0  0  0  0  0  0
    3.8500   -2.1917    0.0000 C   0  0  0  0  0  0  0  0  0  0  0  0
    2.7875   -0.6750    0.0000 C   0  0  0  0  0  0  0  0  0  0  0  0
    4.0875   -1.4042    0.0000 C   0  0  0  0  0  0  0  0  0  0  0  0
    3.6125   -0.7250    0.0000 C   0  0  0  0  0  0  0  0  0  0  0  0
  2  3  1  0  0  0  0
  3  1  1  0  0  0  0
  4  5  3  0  0  0  0
  5  3  1  0  0  0  0
  6  2  1  0  0  0  0
  7  6  2  0  0  0  0
  8 10  2  0  0  0  0
  9  2  2  0  0  0  0
 10  9  1  0  0  0  0
 11  7  1  0  0  0  0
 12  8  1  0  0  0  0
 13  1  1  0  0  0  0
 14  1  1  0  0  0  0
 15 11  1  0  0  0  0
 16 14  1  0  0  0  0
 17 13  1  0  0  0  0
 18 16  1  0  0  0  0
 19 17  1  0  0  0  0
 18 19  1  0  0  0  0
  7  8  1  0  0  0  0
M  END
>  <Code> (P7211810371)
P7211810371

>  <Number of H-Donors> (P7211810371)
1

>  <Number of H-Acceptors> (P7211810371)
4

>  <Number of Rotatable bonds> (P7211810371)
3

>  <CLogP> (P7211810371)
2.900000000000000e+000

>  <Number of Rings> (P7211810371)
2

>  <PSA> (P7211810371)
5.649999999999999e+001

$$$$

  -ISIS-  11102212342D

 26 30  0  0  0  0  0  0  0  0999 V2000
    9.1917   -7.1667    0.0000 C   0  0  0  0  0  0  0  0  0  0  0  0
    9.4417   -7.9542    0.0000 C   0  0  0  0  0  0  0  0  0  0  0  0
    9.7417   -6.5625    0.0000 C   0  0  0  0  0  0  0  0  0  0  0  0
    8.7750   -8.4375    0.0000 S   0  0  0  0  0  0  0  0  0  0  0  0
    8.3667   -7.1667    0.0000 C   0  0  0  0  0  0  0  0  0  0  0  0
   10.2500   -8.1292    0.0000 N   0  0  0  0  0  0  0  0  0  0  0  0
   10.5417   -6.7375    0.0000 N   0  0  0  0  0  0  0  0  0  0  0  0
    8.1167   -7.9542    0.0000 C   0  0  0  0  0  0  0  0  0  0  0  0
   10.8042   -7.5167    0.0000 C   0  0  0  0  0  0  0  0  0  0  0  0
    9.5000   -5.7667    0.0000 S   0  0  0  0  0  0  0  0  0  0  0  0
   10.7167   -2.3792    0.0000 C   0  0  0  0  0  0  0  0  0  0  0  0
   10.3917   -3.7750    0.0000 C   0  0  0  0  0  0  0  0  0  0  0  0
   10.1542   -2.9875    0.0000 C   0  0  0  0  0  0  0  0  0  0  0  0
    9.8292   -4.3750    0.0000 C   0  0  0  0  0  0  0  0  0  0  0  0
   11.5042   -2.5750    0.0000 C   0  0  0  0  0  0  0  0  0  0  0  0
   10.6542   -1.5625    0.0000 O   0  0  0  0  0  0  0  0  0  0  0  0
   11.9292   -1.8667    0.0000 O   0  0  0  0  0  0  0  0  0  0  0  0
   11.4167   -1.2500    0.0000 C   0  0  0  0  0  0  0  0  0  0  0  0
   10.0667   -5.1542    0.0000 C   0  0  0  0  0  0  0  0  0  0  0  0
   11.1875   -3.9625    0.0000 C   0  0  0  0  0  0  0  0  0  0  0  0
    9.0375   -4.1875    0.0000 O   0  0  0  0  0  0  0  0  0  0  0  0
   11.7417   -3.3542    0.0000 C   0  0  0  0  0  0  0  0  0  0  0  0
    7.7000   -6.6875    0.0000 C   0  0  0  0  0  0  0  0  0  0  0  0
    7.2917   -7.9542    0.0000 C   0  0  0  0  0  0  0  0  0  0  0  0
    7.0292   -7.1792    0.0000 C   0  0  0  0  0  0  0  0  0  0  0  0
   11.6167   -7.6792    0.0000 C   0  0  0  0  0  0  0  0  0  0  0  0
  2  1  2  0  0  0  0
  3  1  1  0  0  0  0
  4  2  1  0  0  0  0
  5  1  1  0  0  0  0
  6  2  1  0  0  0  0
  7  3  2  0  0  0  0
  8  5  2  0  0  0  0
  9  7  1  0  0  0  0
 10  3  1  0  0  0  0
 11 13  1  0  0  0  0
 12 14  1  0  0  0  0
 13 12  2  0  0  0  0
 14 19  1  0  0  0  0
 15 22  1  0  0  0  0
 16 11  1  0  0  0  0
 17 15  1  0  0  0  0
 18 16  1  0  0  0  0
 19 10  1  0  0  0  0
 20 12  1  0  0  0  0
 21 14  2  0  0  0  0
 22 20  2  0  0  0  0
 23  5  1  0  0  0  0
 24  8  1  0  0  0  0
 25 23  1  0  0  0  0
 26  9  1  0  0  0  0
  4  8  1  0  0  0  0
 24 25  1  0  0  0  0
  6  9  2  0  0  0  0
 11 15  2  0  0  0  0
 18 17  1  0  0  0  0
M  END
>  <Code> (P7211790425)
P7211790425

>  <Number of H-Donors> (P7211790425)
0

>  <Number of H-Acceptors> (P7211790425)
6

>  <Number of Rotatable bonds> (P7211790425)
4

>  <CLogP> (P7211790425)
4.100000000000000e+000

>  <Number of Rings> (P7211790425)
5

>  <PSA> (P7211790425)
1.149000000000000e+002

$$$$

  -ISIS-  11102212342D

 26 29  0  0  0  0  0  0  0  0999 V2000
    4.6750   -5.7625    0.0000 C   0  0  0  0  0  0  0  0  0  0  0  0
    4.6750   -6.5875    0.0000 C   0  0  0  0  0  0  0  0  0  0  0  0
    5.3875   -7.0000    0.0000 N   0  0  0  0  0  0  0  0  0  0  0  0
    5.3875   -5.3500    0.0000 C   0  0  0  0  0  0  0  0  0  0  0  0
    6.1042   -5.7625    0.0000 N   0  0  3  0  0  0  0  0  0  0  0  0
    6.1042   -6.5875    0.0000 C   0  0  0  0  0  0  0  0  0  0  0  0
    3.8917   -6.8417    0.0000 S   0  0  0  0  0  0  0  0  0  0  0  0
    3.8917   -5.5042    0.0000 C   0  0  0  0  0  0  0  0  0  0  0  0
    3.4042   -6.1792    0.0000 C   0  0  0  0  0  0  0  0  0  0  0  0
    6.8250   -7.0042    0.0000 S   0  0  0  0  0  0  0  0  0  0  0  0
    8.2417   -9.4917    0.0000 C   0  0  0  0  0  0  0  0  0  0  0  0
    5.3875   -4.5250    0.0000 O   0  0  0  0  0  0  0  0  0  0  0  0
    8.9667   -9.0792    0.0000 C   0  0  0  0  0  0  0  0  0  0  0  0
    8.4167  -10.3000    0.0000 O   0  0  0  0  0  0  0  0  0  0  0  0
    9.5792   -9.6375    0.0000 O   0  0  0  0  0  0  0  0  0  0  0  0
    9.2292  -10.3875    0.0000 C   0  0  0  0  0  0  0  0  0  0  0  0
    7.5292   -9.0792    0.0000 C   0  0  0  0  0  0  0  0  0  0  0  0
    6.8250   -5.3500    0.0000 C   0  0  0  0  0  0  0  0  0  0  0  0
    6.8292   -4.5250    0.0000 C   0  0  0  0  0  0  0  0  0  0  0  0
    8.9667   -8.2500    0.0000 C   0  0  0  0  0  0  0  0  0  0  0  0
    7.5417   -4.1125    0.0000 C   0  0  0  0  0  0  0  0  0  0  0  0
    7.5292   -8.2500    0.0000 C   0  0  0  0  0  0  0  0  0  0  0  0
    6.8167   -7.8375    0.0000 C   0  0  0  0  0  0  0  0  0  0  0  0
    3.6375   -4.7167    0.0000 C   0  0  0  0  0  0  0  0  0  0  0  0
    8.2500   -7.8375    0.0000 C   0  0  0  0  0  0  0  0  0  0  0  0
    2.5792   -6.1792    0.0000 C   0  0  0  0  0  0  0  0  0  0  0  0
  2  1  2  0  0  0  0
  3  2  1  0  0  0  0
  4  1  1  0  0  0  0
  5  4  1  0  0  0  0
  6  5  1  0  0  0  0
  7  2  1  0  0  0  0
  8  1  1  0  0  0  0
  9  8  2  0  0  0  0
 10  6  1  0  0  0  0
 11 17  2  0  0  0  0
 12  4  2  0  0  0  0
 13 20  2  0  0  0  0
 14 11  1  0  0  0  0
 15 13  1  0  0  0  0
 16 14  1  0  0  0  0
 17 22  1  0  0  0  0
 18  5  1  0  0  0  0
 19 18  1  0  0  0  0
 20 25  1  0  0  0  0
 21 19  2  0  0  0  0
 22 23  1  0  0  0  0
 23 10  1  0  0  0  0
 24  8  1  0  0  0  0
 25 22  2  0  0  0  0
 26  9  1  0  0  0  0
  7  9  1  0  0  0  0
  6  3  2  0  0  0  0
 11 13  1  0  0  0  0
 16 15  1  0  0  0  0
M  END
>  <Code> (P7211790087)
P7211790087

>  <Number of H-Donors> (P7211790087)
0

>  <Number of H-Acceptors> (P7211790087)
5

>  <Number of Rotatable bonds> (P7211790087)
5

>  <CLogP> (P7211790087)
4.600000000000000e+000

>  <Number of Rings> (P7211790087)
4

>  <PSA> (P7211790087)
1.047000000000000e+002

$$$$

  -ISIS-  11102212342D

 22 23  0  0  0  0  0  0  0  0999 V2000
    3.9250   -6.9417    0.0000 N   0  0  0  0  0  0  0  0  0  0  0  0
    4.6417   -5.7042    0.0000 N   0  0  0  0  0  0  0  0  0  0  0  0
    4.6417   -6.5292    0.0000 C   0  0  0  0  0  0  0  0  0  0  0  0
    3.2125   -6.5292    0.0000 C   0  0  0  0  0  0  0  0  0  0  0  0
    3.9250   -5.2917    0.0000 C   0  0  0  0  0  0  0  0  0  0  0  0
    3.2125   -5.7042    0.0000 C   0  0  0  0  0  0  0  0  0  0  0  0
    6.7792   -7.7792    0.0000 C   0  0  0  0  0  0  0  0  0  0  0  0
    7.4917   -8.1917    0.0000 C   0  0  0  0  0  0  0  0  0  0  0  0
    8.2125   -7.7792    0.0000 C   0  0  0  0  0  0  0  0  0  0  0  0
    6.0667   -8.1917    0.0000 C   0  0  0  0  0  0  0  0  0  0  0  0
    5.3625   -6.9542    0.0000 S   0  0  0  0  0  0  0  0  0  0  0  0
    8.2125   -6.9542    0.0000 C   0  0  0  0  0  0  0  0  0  0  0  0
    5.3542   -7.7792    0.0000 C   0  0  0  0  0  0  0  0  0  0  0  0
    6.7792   -6.9542    0.0000 C   0  0  0  0  0  0  0  0  0  0  0  0
    6.0667   -9.0250    0.0000 O   0  0  0  0  0  0  0  0  0  0  0  0
    7.4917   -6.5417    0.0000 C   0  0  0  0  0  0  0  0  0  0  0  0
    3.9250   -4.4667    0.0000 O   0  0  0  0  0  0  0  0  0  0  0  0
    2.4917   -6.9542    0.0000 O   0  0  0  0  0  0  0  0  0  0  0  0
    8.9292   -8.2042    0.0000 O   0  0  0  0  0  0  0  0  0  0  0  0
    8.9292   -6.5292    0.0000 O   0  0  0  0  0  0  0  0  0  0  0  0
    8.9292   -9.0292    0.0000 C   0  0  0  0  0  0  0  0  0  0  0  0
    8.9292   -5.7042    0.0000 C   0  0  0  0  0  0  0  0  0  0  0  0
  2  3  1  0  0  0  0
  3  1  2  0  0  0  0
  4  1  1  0  0  0  0
  5  6  1  0  0  0  0
  6  4  2  0  0  0  0
  7 10  1  0  0  0  0
  8  7  1  0  0  0  0
  9  8  2  0  0  0  0
 10 13  1  0  0  0  0
 11  3  1  0  0  0  0
 12 16  2  0  0  0  0
 13 11  1  0  0  0  0
 14  7  2  0  0  0  0
 15 10  2  0  0  0  0
 16 14  1  0  0  0  0
 17  5  1  0  0  0  0
 18  4  1  0  0  0  0
 19  9  1  0  0  0  0
 20 12  1  0  0  0  0
 21 19  1  0  0  0  0
 22 20  1  0  0  0  0
  5  2  2  0  0  0  0
 12  9  1  0  0  0  0
M  END
>  <Code> (P7211760048)
P7211760048

>  <Number of H-Donors> (P7211760048)
2

>  <Number of H-Acceptors> (P7211760048)
8

>  <Number of Rotatable bonds> (P7211760048)
6

>  <CLogP> (P7211760048)
2.900000000000000e+000

>  <Number of Rings> (P7211760048)
2

>  <PSA> (P7211760048)
1.271000000000000e+002

$$$$

  -ISIS-  11102212342D

 22 25  0  0  0  0  0  0  0  0999 V2000
   -0.4708   -1.5500    0.0000 C   0  0  0  0  0  0  0  0  0  0  0  0
   -0.4708   -2.5542    0.0000 C   0  0  0  0  0  0  0  0  0  0  0  0
    0.4000   -1.0375    0.0000 C   0  0  0  0  0  0  0  0  0  0  0  0
   -1.4500   -2.9000    0.0000 S   0  0  0  0  0  0  0  0  0  0  0  0
   -1.4500   -1.2167    0.0000 C   0  0  0  0  0  0  0  0  0  0  0  0
    0.4000   -3.0792    0.0000 N   0  0  0  0  0  0  0  0  0  0  0  0
    1.3375   -1.5500    0.0000 N   0  0  0  0  0  0  0  0  0  0  0  0
   -2.0208   -2.0500    0.0000 C   0  0  0  0  0  0  0  0  0  0  0  0
    1.3375   -2.5542    0.0000 C   0  0  0  0  0  0  0  0  0  0  0  0
    0.4000   -0.0042    0.0000 N   0  0  0  0  0  0  0  0  0  0  0  0
   -2.0625   -0.3875    0.0000 C   0  0  0  0  0  0  0  0  0  0  0  0
   -3.0000   -1.7542    0.0000 C   0  0  0  0  0  0  0  0  0  0  0  0
   -0.4708    0.5000    0.0000 C   0  0  0  0  0  0  0  0  0  0  0  0
   -1.3708    2.0500    0.0000 C   0  0  0  0  0  0  0  0  0  0  0  0
   -3.0000   -0.7500    0.0000 C   0  0  0  0  0  0  0  0  0  0  0  0
    2.2542   -3.0292    0.0000 C   0  0  0  0  0  0  0  0  0  0  0  0
   -0.4708    1.5500    0.0000 C   0  0  0  0  0  0  0  0  0  0  0  0
   -1.3708    3.0625    0.0000 C   0  0  0  0  0  0  0  0  0  0  0  0
   -2.2833    1.5125    0.0000 C   0  0  0  0  0  0  0  0  0  0  0  0
   -3.1833    2.0500    0.0000 C   0  0  0  0  0  0  0  0  0  0  0  0
   -2.2458    3.5708    0.0000 C   0  0  0  0  0  0  0  0  0  0  0  0
   -3.1833    3.0625    0.0000 C   0  0  0  0  0  0  0  0  0  0  0  0
  2  1  2  0  0  0  0
  3  1  1  0  0  0  0
  4  2  1  0  0  0  0
  5  1  1  0  0  0  0
  6  2  1  0  0  0  0
  7  3  2  0  0  0  0
  8  5  2  0  0  0  0
  9  7  1  0  0  0  0
 10  3  1  0  0  0  0
 11  5  1  0  0  0  0
 12  8  1  0  0  0  0
 13 10  1  0  0  0  0
 14 17  1  0  0  0  0
 15 11  1  0  0  0  0
 16  9  1  0  0  0  0
 17 13  1  0  0  0  0
 18 14  2  0  0  0  0
 19 14  1  0  0  0  0
 20 19  2  0  0  0  0
 21 18  1  0  0  0  0
 22 20  1  0  0  0  0
  4  8  1  0  0  0  0
 12 15  1  0  0  0  0
  9  6  2  0  0  0  0
 21 22  2  0  0  0  0
M  END
>  <Code> (P7211730847)
P7211730847

>  <Number of H-Donors> (P7211730847)
1

>  <Number of H-Acceptors> (P7211730847)
3

>  <Number of Rotatable bonds> (P7211730847)
4

>  <CLogP> (P7211730847)
3.800000000000000e+000

>  <Number of Rings> (P7211730847)
4

>  <PSA> (P7211730847)
6.609999999999998e+001

$$$$

  -ISIS-  11102212342D

 23 26  0  0  0  0  0  0  0  0999 V2000
   -0.3458   -1.5875    0.0000 C   0  0  0  0  0  0  0  0  0  0  0  0
   -0.2833   -2.6000    0.0000 C   0  0  0  0  0  0  0  0  0  0  0  0
    0.5292   -1.0167    0.0000 C   0  0  0  0  0  0  0  0  0  0  0  0
   -1.2500   -2.9167    0.0000 S   0  0  0  0  0  0  0  0  0  0  0  0
   -1.3458   -1.3000    0.0000 C   0  0  0  0  0  0  0  0  0  0  0  0
    0.6292   -3.0375    0.0000 N   0  0  0  0  0  0  0  0  0  0  0  0
    1.4000   -1.5042    0.0000 N   0  0  0  0  0  0  0  0  0  0  0  0
   -1.9083   -2.1500    0.0000 C   0  0  0  0  0  0  0  0  0  0  0  0
    1.4375   -2.5167    0.0000 C   0  0  0  0  0  0  0  0  0  0  0  0
    0.5292    0.0125    0.0000 N   0  0  0  0  0  0  0  0  0  0  0  0
   -1.8208   -0.3875    0.0000 C   0  0  0  0  0  0  0  0  0  0  0  0
   -2.9125   -2.1042    0.0000 C   0  0  0  0  0  0  0  0  0  0  0  0
   -0.3833    0.5000    0.0000 C   0  0  0  0  0  0  0  0  0  0  0  0
   -1.3000    2.0333    0.0000 C   0  0  0  0  0  0  0  0  0  0  0  0
    2.3667   -2.9542    0.0000 C   0  0  0  0  0  0  0  0  0  0  0  0
   -0.3833    1.5125    0.0000 C   0  0  0  0  0  0  0  0  0  0  0  0
   -2.1500    1.5125    0.0000 C   0  0  0  0  0  0  0  0  0  0  0  0
   -1.3000    3.0458    0.0000 C   0  0  0  0  0  0  0  0  0  0  0  0
   -2.7958   -0.3500    0.0000 C   0  0  0  0  0  0  0  0  0  0  0  0
   -3.4000   -1.1792    0.0000 C   0  0  0  0  0  0  0  0  0  0  0  0
   -2.1958    3.5708    0.0000 C   0  0  0  0  0  0  0  0  0  0  0  0
   -3.0833    1.9958    0.0000 C   0  0  0  0  0  0  0  0  0  0  0  0
   -3.0833    3.0000    0.0000 C   0  0  0  0  0  0  0  0  0  0  0  0
  2  1  2  0  0  0  0
  3  1  1  0  0  0  0
  4  2  1  0  0  0  0
  5  1  1  0  0  0  0
  6  2  1  0  0  0  0
  7  3  2  0  0  0  0
  8  5  2  0  0  0  0
  9  7  1  0  0  0  0
 10  3  1  0  0  0  0
 11  5  1  0  0  0  0
 12  8  1  0  0  0  0
 13 10  1  0  0  0  0
 14 16  1  0  0  0  0
 15  9  1  0  0  0  0
 16 13  1  0  0  0  0
 17 14  2  0  0  0  0
 18 14  1  0  0  0  0
 19 11  1  0  0  0  0
 20 19  1  0  0  0  0
 21 18  2  0  0  0  0
 22 17  1  0  0  0  0
 23 21  1  0  0  0  0
  4  8  1  0  0  0  0
  6  9  2  0  0  0  0
 20 12  1  0  0  0  0
 22 23  2  0  0  0  0
M  END
>  <Code> (P7211730815)
P7211730815

>  <Number of H-Donors> (P7211730815)
1

>  <Number of H-Acceptors> (P7211730815)
3

>  <Number of Rotatable bonds> (P7211730815)
4

>  <CLogP> (P7211730815)
4.200000000000000e+000

>  <Number of Rings> (P7211730815)
4

>  <PSA> (P7211730815)
6.609999999999998e+001

$$$$

  -ISIS-  11102212342D

 23 26  0  0  0  0  0  0  0  0999 V2000
    0.4542    0.4333    0.0000 C   0  0  0  0  0  0  0  0  0  0  0  0
    0.4542    1.8125    0.0000 N   0  0  3  0  0  0  0  0  0  0  0  0
    0.4542   -2.3500    0.0000 C   0  0  0  0  0  0  0  0  0  0  0  0
    1.6542   -1.6667    0.0000 C   0  0  0  0  0  0  0  0  0  0  0  0
   -0.8625    0.0125    0.0000 N   0  0  0  0  0  0  0  0  0  0  0  0
    0.4542   -3.7500    0.0000 C   0  0  0  0  0  0  0  0  0  0  0  0
    1.6542   -0.2667    0.0000 S   0  0  0  0  0  0  0  0  0  0  0  0
   -1.6625    1.1500    0.0000 N   0  0  0  0  0  0  0  0  0  0  0  0
   -0.8625    2.2333    0.0000 N   0  0  0  0  0  0  0  0  0  0  0  0
   -0.8625   -4.1667    0.0000 S   0  0  0  0  0  0  0  0  0  0  0  0
   -0.8625   -1.9292    0.0000 C   0  0  0  0  0  0  0  0  0  0  0  0
   -1.6625   -3.0667    0.0000 C   0  0  0  0  0  0  0  0  0  0  0  0
    1.6542   -4.4292    0.0000 N   0  0  0  0  0  0  0  0  0  0  0  0
    2.8542   -2.3500    0.0000 N   0  0  0  0  0  0  0  0  0  0  0  0
    2.8542   -3.7500    0.0000 C   0  0  0  0  0  0  0  0  0  0  0  0
    1.6542    2.5208    0.0000 C   0  0  0  0  0  0  0  0  0  0  0  0
   -1.3000   -0.5875    0.0000 C   0  0  0  0  0  0  0  0  0  0  0  0
   -3.0625   -3.1292    0.0000 C   0  0  0  0  0  0  0  0  0  0  0  0
    2.8542    1.8125    0.0000 C   0  0  0  0  0  0  0  0  0  0  0  0
    1.6542    3.8958    0.0000 C   0  0  0  0  0  0  0  0  0  0  0  0
    4.0542    2.5208    0.0000 C   0  0  0  0  0  0  0  0  0  0  0  0
    2.8542    4.5875    0.0000 C   0  0  0  0  0  0  0  0  0  0  0  0
    4.0542    3.8958    0.0000 C   0  0  0  0  0  0  0  0  0  0  0  0
  2  1  1  0  0  0  0
  3  4  1  0  0  0  0
  4  7  1  0  0  0  0
  5  1  2  0  0  0  0
  6  3  2  0  0  0  0
  7  1  1  0  0  0  0
  8  5  1  0  0  0  0
  9  2  1  0  0  0  0
 10  6  1  0  0  0  0
 11  3  1  0  0  0  0
 12 11  2  0  0  0  0
 13 15  2  0  0  0  0
 14  4  2  0  0  0  0
 15 14  1  0  0  0  0
 16  2  1  0  0  0  0
 17 11  1  0  0  0  0
 18 12  1  0  0  0  0
 19 16  2  0  0  0  0
 20 16  1  0  0  0  0
 21 19  1  0  0  0  0
 22 20  2  0  0  0  0
 23 22  1  0  0  0  0
  9  8  2  0  0  0  0
 13  6  1  0  0  0  0
 10 12  1  0  0  0  0
 21 23  2  0  0  0  0
M  END
>  <Code> (P7211730273)
P7211730273

>  <Number of H-Donors> (P7211730273)
0

>  <Number of H-Acceptors> (P7211730273)
6

>  <Number of Rotatable bonds> (P7211730273)
3

>  <CLogP> (P7211730273)
3.800000000000000e+000

>  <Number of Rings> (P7211730273)
4

>  <PSA> (P7211730273)
1.229000000000000e+002

$$$$

  -ISIS-  11102212342D

 23 25  0  0  0  0  0  0  0  0999 V2000
    1.4375    1.8208    0.0000 C   0  0  0  0  0  0  0  0  0  0  0  0
    0.5292    1.3000    0.0000 C   0  0  0  0  0  0  0  0  0  0  0  0
   -0.3833    1.8208    0.0000 C   0  0  0  0  0  0  0  0  0  0  0  0
    1.4375    2.8625    0.0000 C   0  0  0  0  0  0  0  0  0  0  0  0
   -0.3833    2.8625    0.0000 C   0  0  0  0  0  0  0  0  0  0  0  0
    0.5292    3.3833    0.0000 O   0  0  0  0  0  0  0  0  0  0  0  0
    2.3792    1.3000    0.0000 O   0  0  0  0  0  0  0  0  0  0  0  0
    2.3792   -2.8542    0.0000 C   0  0  0  0  0  0  0  0  0  0  0  0
   -1.2625    3.3833    0.0000 C   0  0  0  0  0  0  0  0  0  0  0  0
   -1.2625    1.3000    0.0000 C   0  0  0  0  0  0  0  0  0  0  0  0
    2.3792   -1.8375    0.0000 C   0  0  0  0  0  0  0  0  0  0  0  0
    0.5292    0.2625    0.0000 O   0  0  0  0  0  0  0  0  0  0  0  0
    3.3000   -3.3792    0.0000 O   0  0  0  0  0  0  0  0  0  0  0  0
    1.4667   -1.3167    0.0000 C   0  0  0  0  0  0  0  0  0  0  0  0
    3.2792   -1.3167    0.0000 C   0  0  0  0  0  0  0  0  0  0  0  0
   -2.1625    2.8625    0.0000 C   0  0  0  0  0  0  0  0  0  0  0  0
    2.3792    0.2625    0.0000 C   0  0  0  0  0  0  0  0  0  0  0  0
   -2.1625    1.8208    0.0000 C   0  0  0  0  0  0  0  0  0  0  0  0
    1.5042   -3.4000    0.0000 O   0  0  0  0  0  0  0  0  0  0  0  0
    3.2792   -0.2792    0.0000 C   0  0  0  0  0  0  0  0  0  0  0  0
    1.4667   -0.2792    0.0000 C   0  0  0  0  0  0  0  0  0  0  0  0
    2.3375    3.3708    0.0000 C   0  0  0  0  0  0  0  0  0  0  0  0
   -3.0958    3.4000    0.0000 O   0  0  0  0  0  0  0  0  0  0  0  0
  2  1  1  0  0  0  0
  3  2  1  0  0  0  0
  4  1  2  0  0  0  0
  5  6  1  0  0  0  0
  6  4  1  0  0  0  0
  7  1  1  0  0  0  0
  8 11  1  0  0  0  0
  9  5  1  0  0  0  0
 10  3  1  0  0  0  0
 11 14  1  0  0  0  0
 12  2  2  0  0  0  0
 13  8  2  0  0  0  0
 14 21  2  0  0  0  0
 15 20  1  0  0  0  0
 16  9  2  0  0  0  0
 17  7  1  0  0  0  0
 18 10  2  0  0  0  0
 19  8  1  0  0  0  0
 20 17  2  0  0  0  0
 21 17  1  0  0  0  0
 22  4  1  0  0  0  0
 23 16  1  0  0  0  0
  5  3  2  0  0  0  0
 15 11  2  0  0  0  0
 16 18  1  0  0  0  0
M  END
>  <Code> (P7211680021)
P7211680021

>  <Number of H-Donors> (P7211680021)
2

>  <Number of H-Acceptors> (P7211680021)
6

>  <Number of Rotatable bonds> (P7211680021)
3

>  <CLogP> (P7211680021)
2.600000000000000e+000

>  <Number of Rings> (P7211680021)
3

>  <PSA> (P7211680021)
9.310000000000002e+001

$$$$

  -ISIS-  11102212342D

 19 21  0  0  0  0  0  0  0  0999 V2000
    1.1042    1.4208    0.0000 C   0  0  0  0  0  0  0  0  0  0  0  0
    1.7542    0.5958    0.0000 C   0  0  0  0  0  0  0  0  0  0  0  0
    0.1792    0.0208    0.0000 C   0  0  0  0  0  0  0  0  0  0  0  0
    0.1792    1.0458    0.0000 C   0  0  0  0  0  0  0  0  0  0  0  0
    1.2042   -0.2500    0.0000 S   0  0  0  0  0  0  0  0  0  0  0  0
    1.3292    2.4125    0.0000 C   0  0  0  0  0  0  0  0  0  0  0  0
   -1.5958    0.0125    0.0000 N   0  0  3  0  0  0  0  0  0  0  0  0
    1.5500    3.4000    0.0000 N   0  0  0  0  0  0  0  0  0  0  0  0
   -0.6958   -0.4875    0.0000 C   0  0  0  0  0  0  0  0  0  0  0  0
   -0.7000    1.5625    0.0000 C   0  0  0  0  0  0  0  0  0  0  0  0
    2.7875    0.6125    0.0000 N   0  0  0  0  0  0  0  0  0  0  0  0
   -1.5958    1.0458    0.0000 C   0  0  0  0  0  0  0  0  0  0  0  0
   -2.4833   -0.5000    0.0000 C   0  0  0  0  0  0  0  0  0  0  0  0
   -2.4708   -1.5167    0.0000 C   0  0  0  0  0  0  0  0  0  0  0  0
   -3.3708   -2.0167    0.0000 C   0  0  0  0  0  0  0  0  0  0  0  0
   -1.5833   -2.0042    0.0000 C   0  0  0  0  0  0  0  0  0  0  0  0
   -1.5958   -3.0542    0.0000 C   0  0  0  0  0  0  0  0  0  0  0  0
   -3.3625   -3.0500    0.0000 C   0  0  0  0  0  0  0  0  0  0  0  0
   -2.4708   -3.5667    0.0000 C   0  0  0  0  0  0  0  0  0  0  0  0
  2  1  2  0  0  0  0
  3  4  2  0  0  0  0
  4  1  1  0  0  0  0
  5  2  1  0  0  0  0
  6  1  1  0  0  0  0
  7 12  1  0  0  0  0
  8  6  3  0  0  0  0
  9  3  1  0  0  0  0
 10  4  1  0  0  0  0
 11  2  1  0  0  0  0
 12 10  1  0  0  0  0
 13  7  1  0  0  0  0
 14 13  1  0  0  0  0
 15 14  2  0  0  0  0
 16 14  1  0  0  0  0
 17 16  2  0  0  0  0
 18 15  1  0  0  0  0
 19 17  1  0  0  0  0
  3  5  1  0  0  0  0
  9  7  1  0  0  0  0
 19 18  2  0  0  0  0
M  END
>  <Code> (P7211390117)
P7211390117

>  <Number of H-Donors> (P7211390117)
1

>  <Number of H-Acceptors> (P7211390117)
3

>  <Number of Rotatable bonds> (P7211390117)
2

>  <CLogP> (P7211390117)
2.600000000000000e+000

>  <Number of Rings> (P7211390117)
3

>  <PSA> (P7211390117)
8.129999999999998e+001

$$$$

  -ISIS-  11102212342D

 27 28  0  0  0  0  0  0  0  0999 V2000
    1.0500    0.8125    0.0000 C   0  0  0  0  0  0  0  0  0  0  0  0
   -0.3500    0.0125    0.0000 C   0  0  0  0  0  0  0  0  0  0  0  0
    0.3500    1.2125    0.0000 C   0  0  0  0  0  0  0  0  0  0  0  0
    1.0500    0.0125    0.0000 C   0  0  0  0  0  0  0  0  0  0  0  0
   -1.0708   -1.2042    0.0000 C   0  0  0  0  0  0  0  0  0  0  0  0
   -1.7708   -1.6042    0.0000 C   0  0  0  0  0  0  0  0  0  0  0  0
    0.3500   -0.3875    0.0000 C   0  0  0  0  0  0  0  0  0  0  0  0
   -0.3500    0.8125    0.0000 C   0  0  0  0  0  0  0  0  0  0  0  0
   -1.0708   -0.4042    0.0000 C   0  0  3  0  0  0  0  0  0  0  0  0
   -2.4500   -1.2042    0.0000 C   0  0  0  0  0  0  0  0  0  0  0  0
   -1.7708   -2.4042    0.0000 O   0  0  0  0  0  0  0  0  0  0  0  0
   -3.1500   -1.6042    0.0000 C   0  0  0  0  0  0  0  0  0  0  0  0
   -2.4500   -0.4042    0.0000 C   0  0  0  0  0  0  0  0  0  0  0  0
   -1.7500   -0.0042    0.0000 S   0  0  0  0  0  0  0  0  0  0  0  0
    1.7292    1.2333    0.0000 O   0  0  0  0  0  0  0  0  0  0  0  0
   -3.8500   -0.4042    0.0000 C   0  0  0  0  0  0  0  0  0  0  0  0
    0.3500    2.0208    0.0000 O   0  0  0  0  0  0  0  0  0  0  0  0
    1.7292   -0.4042    0.0000 O   0  0  0  0  0  0  0  0  0  0  0  0
   -3.1500   -0.0042    0.0000 C   0  0  0  0  0  0  0  0  0  0  0  0
   -3.8500   -1.2042    0.0000 C   0  0  0  0  0  0  0  0  0  0  0  0
   -4.5500    0.0125    0.0000 Cl  0  0  0  0  0  0  0  0  0  0  0  0
   -2.4500    2.0208    0.0000 O   0  0  0  0  0  0  0  0  0  0  0  0
   -1.7500    0.8125    0.0000 C   0  0  0  0  0  0  0  0  0  0  0  0
   -2.4500    1.2125    0.0000 C   0  0  0  0  0  0  0  0  0  0  0  0
    2.4292    0.8333    0.0000 C   0  0  0  0  0  0  0  0  0  0  0  0
    2.4292   -0.0042    0.0000 C   0  0  0  0  0  0  0  0  0  0  0  0
   -0.3500    2.4125    0.0000 C   0  0  0  0  0  0  0  0  0  0  0  0
  2  7  2  0  0  0  0
  3  1  1  0  0  0  0
  4  1  2  0  0  0  0
  5  9  1  0  0  0  0
  6  5  1  0  0  0  0
  7  4  1  0  0  0  0
  8  3  2  0  0  0  0
  9  2  1  0  0  0  0
 10  6  1  0  0  0  0
 11  6  2  0  0  0  0
 12 10  1  0  0  0  0
 13 10  2  0  0  0  0
 14  9  1  0  0  0  0
 15  1  1  0  0  0  0
 16 19  2  0  0  0  0
 17  3  1  0  0  0  0
 18  4  1  0  0  0  0
 19 13  1  0  0  0  0
 20 12  2  0  0  0  0
 21 16  1  0  0  0  0
 22 24  1  0  0  0  0
 23 14  1  0  0  0  0
 24 23  1  0  0  0  0
 25 15  1  0  0  0  0
 26 18  1  0  0  0  0
 27 17  1  0  0  0  0
  2  8  1  0  0  0  0
 16 20  1  0  0  0  0
M  END
>  <Code> (P7211300030)
P7211300030

>  <Number of H-Donors> (P7211300030)
1

>  <Number of H-Acceptors> (P7211300030)
6

>  <Number of Rotatable bonds> (P7211300030)
10

>  <CLogP> (P7211300030)
4.000000000000000e+000

>  <Number of Rings> (P7211300030)
2

>  <PSA> (P7211300030)
9.030000000000000e+001

$$$$

  -ISIS-  11102212342D

 19 21  0  0  0  0  0  0  0  0999 V2000
    3.9875   -0.8000    0.0000 N   0  0  0  0  0  0  0  0  0  0  0  0
    2.5625   -0.8042    0.0000 C   0  0  0  0  0  0  0  0  0  0  0  0
    3.2667   -0.3917    0.0000 C   0  0  0  0  0  0  0  0  0  0  0  0
    3.9875   -1.6292    0.0000 C   0  0  0  0  0  0  0  0  0  0  0  0
    2.5625   -1.6292    0.0000 C   0  0  0  0  0  0  0  0  0  0  0  0
    3.2750   -2.0417    0.0000 N   0  0  0  0  0  0  0  0  0  0  0  0
    1.1375   -0.8042    0.0000 N   0  0  3  0  0  0  0  0  0  0  0  0
    1.8417   -0.3917    0.0000 C   0  0  0  0  0  0  0  0  0  0  0  0
    1.8500   -2.0417    0.0000 C   0  0  0  0  0  0  0  0  0  0  0  0
    1.1375   -1.6292    0.0000 C   0  0  0  0  0  0  0  0  0  0  0  0
    0.4167   -0.3917    0.0000 C   0  0  0  0  0  0  0  0  0  0  0  0
    3.2625    0.4333    0.0000 O   0  0  0  0  0  0  0  0  0  0  0  0
    4.6917   -2.0375    0.0000 O   0  0  0  0  0  0  0  0  0  0  0  0
   -0.2958   -0.8125    0.0000 C   0  0  0  0  0  0  0  0  0  0  0  0
   -1.0083   -0.4000    0.0000 C   0  0  0  0  0  0  0  0  0  0  0  0
   -0.2958   -1.6417    0.0000 C   0  0  0  0  0  0  0  0  0  0  0  0
   -1.7208   -0.8125    0.0000 C   0  0  0  0  0  0  0  0  0  0  0  0
   -1.0083   -2.0542    0.0000 C   0  0  0  0  0  0  0  0  0  0  0  0
   -1.7208   -1.6417    0.0000 C   0  0  0  0  0  0  0  0  0  0  0  0
  2  3  1  0  0  0  0
  3  1  2  0  0  0  0
  4  1  1  0  0  0  0
  5  6  1  0  0  0  0
  6  4  2  0  0  0  0
  7  8  1  0  0  0  0
  8  2  1  0  0  0  0
  9  5  1  0  0  0  0
 10  9  1  0  0  0  0
 11  7  1  0  0  0  0
 12  3  1  0  0  0  0
 13  4  1  0  0  0  0
 14 11  1  0  0  0  0
 15 14  2  0  0  0  0
 16 14  1  0  0  0  0
 17 15  1  0  0  0  0
 18 16  2  0  0  0  0
 19 18  1  0  0  0  0
  5  2  2  0  0  0  0
 10  7  1  0  0  0  0
 19 17  2  0  0  0  0
M  END
>  <Code> (P7139382)
P7139382

>  <Number of H-Donors> (P7139382)
2

>  <Number of H-Acceptors> (P7139382)
5

>  <Number of Rotatable bonds> (P7139382)
2

>  <CLogP> (P7139382)
2.500000000000000e+000

>  <Number of Rings> (P7139382)
3

>  <PSA> (P7139382)
6.950000000000000e+001

$$$$

  -ISIS-  11102212342D

 21 23  0  0  0  0  0  0  0  0999 V2000
    5.4667   -2.9667    0.0000 C   0  0  0  0  0  0  0  0  0  0  0  0
    6.1792   -2.5542    0.0000 C   0  0  0  0  0  0  0  0  0  0  0  0
    4.0417   -2.9667    0.0000 N   0  0  3  0  0  0  0  0  0  0  0  0
    6.1792   -1.7250    0.0000 C   0  0  0  0  0  0  0  0  0  0  0  0
    5.4667   -3.7917    0.0000 C   0  0  0  0  0  0  0  0  0  0  0  0
    4.7542   -2.5500    0.0000 C   0  0  0  0  0  0  0  0  0  0  0  0
    6.1792   -4.2042    0.0000 N   0  0  0  0  0  0  0  0  0  0  0  0
    4.7542   -4.2042    0.0000 C   0  0  0  0  0  0  0  0  0  0  0  0
    5.4625   -1.3042    0.0000 O   0  0  0  0  0  0  0  0  0  0  0  0
    4.0417   -3.7917    0.0000 C   0  0  0  0  0  0  0  0  0  0  0  0
    3.3250   -2.5542    0.0000 C   0  0  0  0  0  0  0  0  0  0  0  0
    6.8917   -1.3042    0.0000 O   0  0  0  0  0  0  0  0  0  0  0  0
    6.9000   -3.7917    0.0000 C   0  0  0  0  0  0  0  0  0  0  0  0
    3.3250   -1.7292    0.0000 C   0  0  0  0  0  0  0  0  0  0  0  0
    6.8917   -2.9625    0.0000 C   0  0  0  0  0  0  0  0  0  0  0  0
    7.6167   -1.7167    0.0000 C   0  0  0  0  0  0  0  0  0  0  0  0
    4.0375   -1.3167    0.0000 C   0  0  0  0  0  0  0  0  0  0  0  0
    2.6042   -1.3167    0.0000 C   0  0  0  0  0  0  0  0  0  0  0  0
    2.6042   -0.5000    0.0000 C   0  0  0  0  0  0  0  0  0  0  0  0
    4.0375   -0.4917    0.0000 C   0  0  0  0  0  0  0  0  0  0  0  0
    3.3167   -0.0792    0.0000 C   0  0  0  0  0  0  0  0  0  0  0  0
  2  1  1  0  0  0  0
  3  6  1  0  0  0  0
  4  2  1  0  0  0  0
  5  1  2  0  0  0  0
  6  1  1  0  0  0  0
  7  5  1  0  0  0  0
  8  5  1  0  0  0  0
  9  4  2  0  0  0  0
 10  3  1  0  0  0  0
 11  3  1  0  0  0  0
 12  4  1  0  0  0  0
 13  7  2  0  0  0  0
 14 11  1  0  0  0  0
 15  2  2  0  0  0  0
 16 12  1  0  0  0  0
 17 14  2  0  0  0  0
 18 14  1  0  0  0  0
 19 18  2  0  0  0  0
 20 17  1  0  0  0  0
 21 19  1  0  0  0  0
 13 15  1  0  0  0  0
 10  8  1  0  0  0  0
 20 21  2  0  0  0  0
M  END
>  <Code> (P7135510)
P7135510

>  <Number of H-Donors> (P7135510)
0

>  <Number of H-Acceptors> (P7135510)
4

>  <Number of Rotatable bonds> (P7135510)
4

>  <CLogP> (P7135510)
2.400000000000000e+000

>  <Number of Rings> (P7135510)
3

>  <PSA> (P7135510)
4.240000000000001e+001

$$$$

  -ISIS-  11102212342D

 22 24  0  0  0  0  0  0  0  0999 V2000
    7.0250   -0.0250    0.0000 C   0  0  0  0  0  0  0  0  0  0  0  0
    7.7292    0.3833    0.0000 C   0  0  0  0  0  0  0  0  0  0  0  0
    7.0250   -0.8542    0.0000 C   0  0  0  0  0  0  0  0  0  0  0  0
    7.7417   -1.2750    0.0000 N   0  0  0  0  0  0  0  0  0  0  0  0
    5.5875   -0.0250    0.0000 N   0  0  3  0  0  0  0  0  0  0  0  0
    7.7292    1.2083    0.0000 C   0  0  0  0  0  0  0  0  0  0  0  0
    8.4542   -0.8542    0.0000 C   0  0  0  0  0  0  0  0  0  0  0  0
    6.3042    0.3833    0.0000 C   0  0  0  0  0  0  0  0  0  0  0  0
    8.4542   -0.0250    0.0000 C   0  0  0  0  0  0  0  0  0  0  0  0
    6.3125   -1.2750    0.0000 C   0  0  0  0  0  0  0  0  0  0  0  0
    7.0167    1.6250    0.0000 O   0  0  0  0  0  0  0  0  0  0  0  0
    5.5917   -0.8625    0.0000 C   0  0  0  0  0  0  0  0  0  0  0  0
    4.8750    0.3750    0.0000 C   0  0  0  0  0  0  0  0  0  0  0  0
    9.1667   -1.2750    0.0000 Cl  0  0  0  0  0  0  0  0  0  0  0  0
    8.4542    1.6333    0.0000 O   0  0  0  0  0  0  0  0  0  0  0  0
    4.1542   -0.0292    0.0000 C   0  0  0  0  0  0  0  0  0  0  0  0
    8.4417    2.4583    0.0000 C   0  0  0  0  0  0  0  0  0  0  0  0
    4.1542   -0.8667    0.0000 C   0  0  0  0  0  0  0  0  0  0  0  0
    3.4417    0.3708    0.0000 C   0  0  0  0  0  0  0  0  0  0  0  0
    3.4417   -1.2875    0.0000 C   0  0  0  0  0  0  0  0  0  0  0  0
    2.7292   -0.0292    0.0000 C   0  0  0  0  0  0  0  0  0  0  0  0
    2.7292   -0.8667    0.0000 C   0  0  0  0  0  0  0  0  0  0  0  0
  2  1  1  0  0  0  0
  3  1  2  0  0  0  0
  4  3  1  0  0  0  0
  5  8  1  0  0  0  0
  6  2  1  0  0  0  0
  7  4  2  0  0  0  0
  8  1  1  0  0  0  0
  9  2  2  0  0  0  0
 10  3  1  0  0  0  0
 11  6  2  0  0  0  0
 12  5  1  0  0  0  0
 13  5  1  0  0  0  0
 14  7  1  0  0  0  0
 15  6  1  0  0  0  0
 16 13  1  0  0  0  0
 17 15  1  0  0  0  0
 18 16  1  0  0  0  0
 19 16  2  0  0  0  0
 20 18  2  0  0  0  0
 21 19  1  0  0  0  0
 22 21  2  0  0  0  0
  9  7  1  0  0  0  0
 10 12  1  0  0  0  0
 20 22  1  0  0  0  0
M  END
>  <Code> (P7135509)
P7135509

>  <Number of H-Donors> (P7135509)
0

>  <Number of H-Acceptors> (P7135509)
4

>  <Number of Rotatable bonds> (P7135509)
4

>  <CLogP> (P7135509)
3.300000000000000e+000

>  <Number of Rings> (P7135509)
3

>  <PSA> (P7135509)
4.240000000000001e+001

$$$$

  -ISIS-  11102212342D

 14 15  0  0  0  0  0  0  0  0999 V2000
    2.1042   -3.2917    0.0000 N   0  0  0  0  0  0  0  0  0  0  0  0
    2.8167   -2.8792    0.0000 C   0  0  0  0  0  0  0  0  0  0  0  0
    1.3917   -2.8792    0.0000 C   0  0  0  0  0  0  0  0  0  0  0  0
    2.1000   -1.6417    0.0000 C   0  0  0  0  0  0  0  0  0  0  0  0
    1.3917   -2.0542    0.0000 C   0  0  0  0  0  0  0  0  0  0  0  0
    2.8167   -2.0500    0.0000 C   0  0  0  0  0  0  0  0  0  0  0  0
    3.5375   -3.2875    0.0000 O   0  0  0  0  0  0  0  0  0  0  0  0
    2.8042   -0.4000    0.0000 N   0  0  0  0  0  0  0  0  0  0  0  0
    2.0917   -0.8167    0.0000 C   0  0  0  0  0  0  0  0  0  0  0  0
    0.6750   -3.3000    0.0000 C   0  0  0  0  0  0  0  0  0  0  0  0
    0.6750   -1.6417    0.0000 C   0  0  0  0  0  0  0  0  0  0  0  0
    2.8042    0.4250    0.0000 C   0  0  0  0  0  0  0  0  0  0  0  0
   -0.0375   -2.8875    0.0000 C   0  0  0  0  0  0  0  0  0  0  0  0
   -0.0375   -2.0625    0.0000 C   0  0  0  0  0  0  0  0  0  0  0  0
  2  1  2  0  0  0  0
  3  1  1  0  0  0  0
  4  5  1  0  0  0  0
  5  3  1  0  0  0  0
  6  2  1  0  0  0  0
  7  2  1  0  0  0  0
  8  9  1  0  0  0  0
  9  4  1  0  0  0  0
 10  3  2  0  0  0  0
 11  5  2  0  0  0  0
 12  8  1  0  0  0  0
 13 10  1  0  0  0  0
 14 13  2  0  0  0  0
  4  6  2  0  0  0  0
 14 11  1  0  0  0  0
M  END
>  <Code> (P7133109)
P7133109

>  <Number of H-Donors> (P7133109)
2

>  <Number of H-Acceptors> (P7133109)
3

>  <Number of Rotatable bonds> (P7133109)
2

>  <CLogP> (P7133109)
1.900000000000000e+000

>  <Number of Rings> (P7133109)
2

>  <PSA> (P7133109)
4.520000000000000e+001

$$$$

  -ISIS-  11102212342D

 26 29  0  0  0  0  0  0  0  0999 V2000
    9.2167  -12.3292    0.0000 C   0  0  0  0  0  0  0  0  0  0  0  0
    8.4125  -12.1750    0.0000 C   0  0  0  0  0  0  0  0  0  0  0  0
    9.3167  -13.1542    0.0000 N   0  0  3  0  0  0  0  0  0  0  0  0
    8.5750  -13.5042    0.0000 N   0  0  0  0  0  0  0  0  0  0  0  0
    9.7667  -11.7125    0.0000 N   0  0  0  0  0  0  0  0  0  0  0  0
    6.2417  -10.3125    0.0000 C   0  0  0  0  0  0  0  0  0  0  0  0
    8.1375  -11.4000    0.0000 C   0  0  0  0  0  0  0  0  0  0  0  0
    7.3292  -11.2417    0.0000 C   0  0  0  0  0  0  0  0  0  0  0  0
    7.0542  -10.4667    0.0000 N   0  0  0  0  0  0  0  0  0  0  0  0
    8.0125  -12.8917    0.0000 C   0  0  0  0  0  0  0  0  0  0  0  0
    5.9167   -9.5792    0.0000 N   0  0  0  0  0  0  0  0  0  0  0  0
    9.4917  -10.9292    0.0000 C   0  0  0  0  0  0  0  0  0  0  0  0
    8.6667  -10.7667    0.0000 C   0  0  0  0  0  0  0  0  0  0  0  0
    5.6292  -10.8667    0.0000 S   0  0  0  0  0  0  0  0  0  0  0  0
   10.0292  -10.3042    0.0000 C   0  0  0  0  0  0  0  0  0  0  0  0
    5.0917   -9.6542    0.0000 C   0  0  0  0  0  0  0  0  0  0  0  0
   10.8542  -10.3750    0.0000 S   0  0  0  0  0  0  0  0  0  0  0  0
    4.9167  -10.4625    0.0000 C   0  0  0  0  0  0  0  0  0  0  0  0
    6.7917  -11.8750    0.0000 O   0  0  0  0  0  0  0  0  0  0  0  0
    9.8500   -9.5000    0.0000 C   0  0  0  0  0  0  0  0  0  0  0  0
   11.1792   -9.6125    0.0000 C   0  0  0  0  0  0  0  0  0  0  0  0
   10.0375  -13.5542    0.0000 C   0  0  3  0  0  0  0  0  0  0  0  0
   10.5500   -9.0667    0.0000 C   0  0  0  0  0  0  0  0  0  0  0  0
    4.5500   -9.0417    0.0000 C   0  0  0  0  0  0  0  0  0  0  0  0
   10.7417  -13.1292    0.0000 C   0  0  0  0  0  0  0  0  0  0  0  0
   10.0500  -14.3792    0.0000 C   0  0  0  0  0  0  0  0  0  0  0  0
  2  1  2  0  0  0  0
  3  1  1  0  0  0  0
  4  3  1  0  0  0  0
  5  1  1  0  0  0  0
  6  9  1  0  0  0  0
  7  2  1  0  0  0  0
  8  7  1  0  0  0  0
  9  8  1  0  0  0  0
 10  2  1  0  0  0  0
 11  6  2  0  0  0  0
 12  5  2  0  0  0  0
 13 12  1  0  0  0  0
 14  6  1  0  0  0  0
 15 12  1  0  0  0  0
 16 11  1  0  0  0  0
 17 15  1  0  0  0  0
 18 14  1  0  0  0  0
 19  8  2  0  0  0  0
 20 15  2  0  0  0  0
 21 17  1  0  0  0  0
 22  3  1  0  0  0  0
 23 20  1  0  0  0  0
 24 16  1  0  0  0  0
 25 22  1  0  0  0  0
 26 22  1  0  0  0  0
  4 10  2  0  0  0  0
  7 13  2  0  0  0  0
 23 21  2  0  0  0  0
 16 18  2  0  0  0  0
M  END
>  <Code> (P7131707)
P7131707

>  <Number of H-Donors> (P7131707)
1

>  <Number of H-Acceptors> (P7131707)
4

>  <Number of Rotatable bonds> (P7131707)
4

>  <CLogP> (P7131707)
3.400000000000000e+000

>  <Number of Rings> (P7131707)
4

>  <PSA> (P7131707)
1.292000000000000e+002

$$$$

  -ISIS-  11102212342D

 31 34  0  0  0  0  0  0  0  0999 V2000
    6.5417   -2.2875    0.0000 N   0  0  3  0  0  0  0  0  0  0  0  0
    6.7917   -3.0667    0.0000 N   0  0  0  0  0  0  0  0  0  0  0  0
    7.6042   -3.2417    0.0000 C   0  0  0  0  0  0  0  0  0  0  0  0
    7.8542   -4.0292    0.0000 N   0  0  3  0  0  0  0  0  0  0  0  0
    7.0917   -1.6750    0.0000 C   0  0  0  0  0  0  0  0  0  0  0  0
    6.6917   -0.9625    0.0000 N   0  0  0  0  0  0  0  0  0  0  0  0
    7.3750   -4.6917    0.0000 N   0  0  0  0  0  0  0  0  0  0  0  0
    5.8792   -1.1250    0.0000 N   0  0  0  0  0  0  0  0  0  0  0  0
    5.7917   -1.9417    0.0000 C   0  0  0  0  0  0  0  0  0  0  0  0
    8.6417   -4.2792    0.0000 C   0  0  0  0  0  0  0  0  0  0  0  0
    8.6417   -5.1125    0.0000 C   0  0  0  0  0  0  0  0  0  0  0  0
    0.8000    0.1333    0.0000 C   0  0  0  0  0  0  0  0  0  0  0  0
    8.1542   -2.6375    0.0000 C   0  0  0  0  0  0  0  0  0  0  0  0
    7.9042   -1.8417    0.0000 C   0  0  0  0  0  0  0  0  0  0  0  0
    1.5042    0.5458    0.0000 C   0  0  0  0  0  0  0  0  0  0  0  0
    0.8000   -0.6917    0.0000 C   0  0  0  0  0  0  0  0  0  0  0  0
    7.8625   -5.3667    0.0000 C   0  0  0  0  0  0  0  0  0  0  0  0
    2.2250   -0.6917    0.0000 C   0  0  0  0  0  0  0  0  0  0  0  0
    1.5042   -1.1042    0.0000 C   0  0  0  0  0  0  0  0  0  0  0  0
    2.2250    0.1333    0.0000 C   0  0  0  0  0  0  0  0  0  0  0  0
    2.9375   -1.1042    0.0000 N   0  0  0  0  0  0  0  0  0  0  0  0
    2.9292   -1.9292    0.0000 C   0  0  0  0  0  0  0  0  0  0  0  0
    2.2167   -2.3417    0.0000 O   0  0  0  0  0  0  0  0  0  0  0  0
    0.0875    0.5500    0.0000 F   0  0  0  0  0  0  0  0  0  0  0  0
    0.0875   -1.1000    0.0000 F   0  0  0  0  0  0  0  0  0  0  0  0
    1.5042    1.3708    0.0000 F   0  0  0  0  0  0  0  0  0  0  0  0
    5.0750   -2.3542    0.0000 C   0  0  0  0  0  0  0  0  0  0  0  0
    9.3042   -3.7917    0.0000 C   0  0  0  0  0  0  0  0  0  0  0  0
    4.3625   -1.9375    0.0000 C   0  0  0  0  0  0  0  0  0  0  0  0
    3.6417   -2.3417    0.0000 C   0  0  0  0  0  0  0  0  0  0  0  0
    7.6000   -6.1500    0.0000 C   0  0  0  0  0  0  0  0  0  0  0  0
  2  1  1  0  0  0  0
  3  2  2  0  0  0  0
  4  3  1  0  0  0  0
  5  1  1  0  0  0  0
  6  5  2  0  0  0  0
  7  4  1  0  0  0  0
  8  9  2  0  0  0  0
  9  1  1  0  0  0  0
 10  4  1  0  0  0  0
 11 10  2  0  0  0  0
 12 15  1  0  0  0  0
 13 14  2  0  0  0  0
 14  5  1  0  0  0  0
 15 20  2  0  0  0  0
 16 19  1  0  0  0  0
 17  7  2  0  0  0  0
 18 21  1  0  0  0  0
 19 18  2  0  0  0  0
 20 18  1  0  0  0  0
 21 22  1  0  0  0  0
 22 30  1  0  0  0  0
 23 22  2  0  0  0  0
 24 12  1  0  0  0  0
 25 16  1  0  0  0  0
 26 15  1  0  0  0  0
 27  9  1  0  0  0  0
 28 10  1  0  0  0  0
 29 27  1  0  0  0  0
 30 29  1  0  0  0  0
 31 17  1  0  0  0  0
  8  6  1  0  0  0  0
 13  3  1  0  0  0  0
 11 17  1  0  0  0  0
 12 16  2  0  0  0  0
M  END
>  <Code> (P7130118)
P7130118

>  <Number of H-Donors> (P7130118)
1

>  <Number of H-Acceptors> (P7130118)
5

>  <Number of Rotatable bonds> (P7130118)
6

>  <CLogP> (P7130118)
3.400000000000000e+000

>  <Number of Rings> (P7130118)
4

>  <PSA> (P7130118)
9.000000000000000e+001

$$$$

  -ISIS-  11102212342D

 25 27  0  0  0  0  0  0  0  0999 V2000
    5.5542   -1.0042    0.0000 C   0  0  0  0  0  0  0  0  0  0  0  0
    4.8875   -1.4917    0.0000 N   0  0  0  0  0  0  0  0  0  0  0  0
    5.5500   -0.1875    0.0000 S   0  0  3  0  0  0  0  0  0  0  0  0
    6.2250   -1.4917    0.0000 C   0  0  0  0  0  0  0  0  0  0  0  0
    5.1417   -2.2792    0.0000 C   0  0  0  0  0  0  0  0  0  0  0  0
    5.9625   -2.2792    0.0000 O   0  0  0  0  0  0  0  0  0  0  0  0
    4.6542   -2.9375    0.0000 C   0  0  0  0  0  0  0  0  0  0  0  0
    5.5500    0.6500    0.0000 C   0  0  0  0  0  0  0  0  0  0  0  0
    7.0042   -1.2417    0.0000 S   0  0  0  0  0  0  0  0  0  0  0  0
    6.2667    0.2208    0.0000 O   0  0  0  0  0  0  0  0  0  0  0  0
    4.8292    0.2208    0.0000 O   0  0  0  0  0  0  0  0  0  0  0  0
    4.9042   -3.7167    0.0000 O   0  0  0  0  0  0  0  0  0  0  0  0
    7.9542   -0.1792    0.0000 C   0  0  0  0  0  0  0  0  0  0  0  0
    3.8375   -2.9375    0.0000 C   0  0  0  0  0  0  0  0  0  0  0  0
    4.2417   -4.2042    0.0000 C   0  0  0  0  0  0  0  0  0  0  0  0
    3.5792   -3.7167    0.0000 C   0  0  0  0  0  0  0  0  0  0  0  0
    7.3417    0.3708    0.0000 O   0  0  0  0  0  0  0  0  0  0  0  0
    4.8250    1.0625    0.0000 C   0  0  0  0  0  0  0  0  0  0  0  0
    6.2792    1.0708    0.0000 C   0  0  0  0  0  0  0  0  0  0  0  0
    7.7875   -0.9875    0.0000 C   0  0  0  0  0  0  0  0  0  0  0  0
    8.7417    0.0750    0.0000 N   0  0  0  0  0  0  0  0  0  0  0  0
    5.5417    2.3333    0.0000 C   0  0  0  0  0  0  0  0  0  0  0  0
    6.2792    1.9083    0.0000 C   0  0  0  0  0  0  0  0  0  0  0  0
    4.8167    1.9000    0.0000 C   0  0  0  0  0  0  0  0  0  0  0  0
    5.5417    3.1500    0.0000 Cl  0  0  0  0  0  0  0  0  0  0  0  0
  2  1  1  0  0  0  0
  3  1  1  0  0  0  0
  4  1  2  0  0  0  0
  5  2  2  0  0  0  0
  6  4  1  0  0  0  0
  7  5  1  0  0  0  0
  8  3  1  0  0  0  0
  9  4  1  0  0  0  0
 10  3  2  0  0  0  0
 11  3  2  0  0  0  0
 12  7  1  0  0  0  0
 13 20  1  0  0  0  0
 14  7  2  0  0  0  0
 15 12  1  0  0  0  0
 16 14  1  0  0  0  0
 17 13  2  0  0  0  0
 18  8  1  0  0  0  0
 19  8  2  0  0  0  0
 20  9  1  0  0  0  0
 21 13  1  0  0  0  0
 22 23  2  0  0  0  0
 23 19  1  0  0  0  0
 24 18  2  0  0  0  0
 25 22  1  0  0  0  0
  5  6  1  0  0  0  0
 24 22  1  0  0  0  0
 16 15  2  0  0  0  0
M  END
>  <Code> (P7128054)
P7128054

>  <Number of H-Donors> (P7128054)
1

>  <Number of H-Acceptors> (P7128054)
5

>  <Number of Rotatable bonds> (P7128054)
6

>  <CLogP> (P7128054)
2.900000000000000e+000

>  <Number of Rings> (P7128054)
3

>  <PSA> (P7128054)
1.501000000000000e+002

$$$$

  -ISIS-  11102212342D

 34 37  0  0  0  0  0  0  0  0999 V2000
    6.9417   -7.2917    0.0000 C   0  0  0  0  0  0  0  0  0  0  0  0
    6.1167   -7.2917    0.0000 N   0  0  0  0  0  0  0  0  0  0  0  0
    7.4167   -6.6167    0.0000 S   0  0  3  0  0  0  0  0  0  0  0  0
    7.1917   -8.0792    0.0000 C   0  0  0  0  0  0  0  0  0  0  0  0
    5.8542   -8.0792    0.0000 C   0  0  0  0  0  0  0  0  0  0  0  0
    6.5292   -8.5542    0.0000 O   0  0  0  0  0  0  0  0  0  0  0  0
    7.9792   -8.3292    0.0000 S   0  0  0  0  0  0  0  0  0  0  0  0
    9.1792  -10.1042    0.0000 N   0  0  0  0  0  0  0  0  0  0  0  0
    6.7292   -6.1792    0.0000 O   0  0  0  0  0  0  0  0  0  0  0  0
    8.1167   -7.0667    0.0000 O   0  0  0  0  0  0  0  0  0  0  0  0
    5.0750   -8.3292    0.0000 C   0  0  0  0  0  0  0  0  0  0  0  0
    8.9417   -9.3167    0.0000 C   0  0  0  0  0  0  0  0  0  0  0  0
    7.9042   -5.9542    0.0000 C   0  0  0  0  0  0  0  0  0  0  0  0
    9.9917  -10.2917    0.0000 C   0  0  0  0  0  0  0  0  0  0  0  0
   10.2417  -11.0792    0.0000 C   0  0  0  0  0  0  0  0  0  0  0  0
    9.5042   -8.7167    0.0000 O   0  0  0  0  0  0  0  0  0  0  0  0
    8.1417   -9.1417    0.0000 C   0  0  0  0  0  0  0  0  0  0  0  0
    4.4625   -7.7792    0.0000 C   0  0  0  0  0  0  0  0  0  0  0  0
    4.9000   -9.1417    0.0000 C   0  0  0  0  0  0  0  0  0  0  0  0
    3.5250   -8.8417    0.0000 C   0  0  0  0  0  0  0  0  0  0  0  0
    3.6875   -8.0417    0.0000 C   0  0  0  0  0  0  0  0  0  0  0  0
    4.1167   -9.3917    0.0000 C   0  0  0  0  0  0  0  0  0  0  0  0
    2.7250   -9.1042    0.0000 F   0  0  0  0  0  0  0  0  0  0  0  0
    9.6792  -11.6917    0.0000 O   0  0  0  0  0  0  0  0  0  0  0  0
   10.5542   -9.6792    0.0000 C   0  0  0  0  0  0  0  0  0  0  0  0
    7.5667   -5.2000    0.0000 C   0  0  0  0  0  0  0  0  0  0  0  0
    8.7292   -6.0417    0.0000 C   0  0  0  0  0  0  0  0  0  0  0  0
   11.0417  -11.2667    0.0000 C   0  0  0  0  0  0  0  0  0  0  0  0
    9.9167  -12.4792    0.0000 C   0  0  0  0  0  0  0  0  0  0  0  0
   11.3750   -9.8667    0.0000 C   0  0  0  0  0  0  0  0  0  0  0  0
    9.2042   -5.3750    0.0000 C   0  0  0  0  0  0  0  0  0  0  0  0
    8.0542   -4.5292    0.0000 C   0  0  0  0  0  0  0  0  0  0  0  0
   11.6125  -10.6667    0.0000 C   0  0  0  0  0  0  0  0  0  0  0  0
    8.8667   -4.6250    0.0000 C   0  0  0  0  0  0  0  0  0  0  0  0
  2  1  1  0  0  0  0
  3  1  1  0  0  0  0
  4  1  2  0  0  0  0
  5  2  2  0  0  0  0
  6  4  1  0  0  0  0
  7  4  1  0  0  0  0
  8 12  1  0  0  0  0
  9  3  2  0  0  0  0
 10  3  2  0  0  0  0
 11  5  1  0  0  0  0
 12 17  1  0  0  0  0
 13  3  1  0  0  0  0
 14  8  1  0  0  0  0
 15 14  2  0  0  0  0
 16 12  2  0  0  0  0
 17  7  1  0  0  0  0
 18 11  2  0  0  0  0
 19 11  1  0  0  0  0
 20 22  1  0  0  0  0
 21 18  1  0  0  0  0
 22 19  2  0  0  0  0
 23 20  1  0  0  0  0
 24 15  1  0  0  0  0
 25 14  1  0  0  0  0
 26 13  1  0  0  0  0
 27 13  2  0  0  0  0
 28 15  1  0  0  0  0
 29 24  1  0  0  0  0
 30 25  2  0  0  0  0
 31 27  1  0  0  0  0
 32 26  2  0  0  0  0
 33 30  1  0  0  0  0
 34 31  2  0  0  0  0
  6  5  1  0  0  0  0
 32 34  1  0  0  0  0
 20 21  2  0  0  0  0
 33 28  2  0  0  0  0
M  END
>  <Code> (P7127870)
P7127870

>  <Number of H-Donors> (P7127870)
1

>  <Number of H-Acceptors> (P7127870)
6

>  <Number of Rotatable bonds> (P7127870)
8

>  <CLogP> (P7127870)
4.800000000000000e+000

>  <Number of Rings> (P7127870)
4

>  <PSA> (P7127870)
1.322000000000000e+002

$$$$

  -ISIS-  11102212342D

 28 30  0  0  0  0  0  0  0  0999 V2000
   -2.3083    0.1583    0.0000 C   0  0  0  0  0  0  0  0  0  0  0  0
   -1.4833    0.1500    0.0000 N   0  0  0  0  0  0  0  0  0  0  0  0
   -1.2333   -0.6292    0.0000 C   0  0  0  0  0  0  0  0  0  0  0  0
   -2.7833    0.8208    0.0000 S   0  0  3  0  0  0  0  0  0  0  0  0
   -2.5625   -0.6250    0.0000 C   0  0  0  0  0  0  0  0  0  0  0  0
   -1.9083   -1.1125    0.0000 S   0  0  0  0  0  0  0  0  0  0  0  0
   -0.4458   -0.8875    0.0000 S   0  0  3  0  0  0  0  0  0  0  0  0
   -3.3458   -0.8750    0.0000 N   0  0  0  0  0  0  0  0  0  0  0  0
   -3.2000    1.5333    0.0000 C   0  0  0  0  0  0  0  0  0  0  0  0
   -2.0958    1.2708    0.0000 O   0  0  0  0  0  0  0  0  0  0  0  0
   -3.4750    0.3750    0.0000 O   0  0  0  0  0  0  0  0  0  0  0  0
   -4.2958   -1.9292    0.0000 C   0  0  0  0  0  0  0  0  0  0  0  0
   -0.6625   -1.6792    0.0000 O   0  0  0  0  0  0  0  0  0  0  0  0
   -0.2333   -0.0875    0.0000 O   0  0  0  0  0  0  0  0  0  0  0  0
   -4.5500   -2.7167    0.0000 O   0  0  0  0  0  0  0  0  0  0  0  0
   -4.9708   -1.4542    0.0000 C   0  0  0  0  0  0  0  0  0  0  0  0
   -5.3833   -2.7167    0.0000 C   0  0  0  0  0  0  0  0  0  0  0  0
   -5.6458   -1.9292    0.0000 C   0  0  0  0  0  0  0  0  0  0  0  0
   -2.7875    2.2583    0.0000 C   0  0  0  0  0  0  0  0  0  0  0  0
   -4.0208    1.5333    0.0000 C   0  0  0  0  0  0  0  0  0  0  0  0
   -3.5208   -1.6667    0.0000 C   0  0  0  0  0  0  0  0  0  0  0  0
    0.3250   -1.1500    0.0000 C   0  0  0  0  0  0  0  0  0  0  0  0
   -4.4458    2.2458    0.0000 C   0  0  0  0  0  0  0  0  0  0  0  0
   -3.2000    2.9833    0.0000 C   0  0  0  0  0  0  0  0  0  0  0  0
   -4.0333    2.9833    0.0000 C   0  0  0  0  0  0  0  0  0  0  0  0
   -4.4458    3.6750    0.0000 C   0  0  0  0  0  0  0  0  0  0  0  0
    0.9500   -0.6000    0.0000 C   0  0  0  0  0  0  0  0  0  0  0  0
    1.7292   -0.8625    0.0000 C   0  0  0  0  0  0  0  0  0  0  0  0
  2  1  1  0  0  0  0
  3  2  2  0  0  0  0
  4  1  1  0  0  0  0
  5  1  2  0  0  0  0
  6  5  1  0  0  0  0
  7  3  1  0  0  0  0
  8  5  1  0  0  0  0
  9  4  1  0  0  0  0
 10  4  2  0  0  0  0
 11  4  2  0  0  0  0
 12 21  1  0  0  0  0
 13  7  2  0  0  0  0
 14  7  2  0  0  0  0
 15 12  1  0  0  0  0
 16 12  2  0  0  0  0
 17 15  1  0  0  0  0
 18 16  1  0  0  0  0
 19  9  2  0  0  0  0
 20  9  1  0  0  0  0
 21  8  1  0  0  0  0
 22  7  1  0  0  0  0
 23 20  2  0  0  0  0
 24 19  1  0  0  0  0
 25 23  1  0  0  0  0
 26 25  1  0  0  0  0
 27 22  1  0  0  0  0
 28 27  1  0  0  0  0
  3  6  1  0  0  0  0
 25 24  2  0  0  0  0
 18 17  2  0  0  0  0
M  END
>  <Code> (P7127829)
P7127829

>  <Number of H-Donors> (P7127829)
1

>  <Number of H-Acceptors> (P7127829)
6

>  <Number of Rotatable bonds> (P7127829)
8

>  <CLogP> (P7127829)
4.100000000000000e+000

>  <Number of Rings> (P7127829)
3

>  <PSA> (P7127829)
1.513000000000000e+002

$$$$

  -ISIS-  11102212342D

 21 23  0  0  0  0  0  0  0  0999 V2000
    3.7167   -4.6917    0.0000 C   0  0  0  0  0  0  0  0  0  0  0  0
    4.5375   -4.6917    0.0000 N   0  0  0  0  0  0  0  0  0  0  0  0
    3.3042   -3.9792    0.0000 S   0  0  3  0  0  0  0  0  0  0  0  0
    3.4625   -5.4792    0.0000 C   0  0  0  0  0  0  0  0  0  0  0  0
    4.7917   -5.4792    0.0000 C   0  0  0  0  0  0  0  0  0  0  0  0
    4.1250   -5.9542    0.0000 O   0  0  0  0  0  0  0  0  0  0  0  0
    5.6125   -5.4750    0.0000 C   0  0  0  0  0  0  0  0  0  0  0  0
    3.7167   -3.2625    0.0000 O   0  0  0  0  0  0  0  0  0  0  0  0
    2.4792   -3.9792    0.0000 O   0  0  0  0  0  0  0  0  0  0  0  0
    2.8875   -3.2667    0.0000 C   0  0  0  0  0  0  0  0  0  0  0  0
    6.2792   -5.9542    0.0000 O   0  0  0  0  0  0  0  0  0  0  0  0
    2.6792   -5.7292    0.0000 N   0  0  0  0  0  0  0  0  0  0  0  0
    5.8667   -4.6917    0.0000 C   0  0  0  0  0  0  0  0  0  0  0  0
    6.9417   -5.4750    0.0000 C   0  0  0  0  0  0  0  0  0  0  0  0
    6.6917   -4.6917    0.0000 C   0  0  0  0  0  0  0  0  0  0  0  0
    2.0667   -3.2667    0.0000 C   0  0  0  0  0  0  0  0  0  0  0  0
    3.3000   -2.5500    0.0000 C   0  0  0  0  0  0  0  0  0  0  0  0
    2.5042   -6.5417    0.0000 C   0  0  0  0  0  0  0  0  0  0  0  0
    1.6417   -2.5542    0.0000 C   0  0  0  0  0  0  0  0  0  0  0  0
    2.8792   -1.8292    0.0000 C   0  0  0  0  0  0  0  0  0  0  0  0
    2.0542   -1.8375    0.0000 C   0  0  0  0  0  0  0  0  0  0  0  0
  2  1  1  0  0  0  0
  3  1  1  0  0  0  0
  4  1  2  0  0  0  0
  5  2  2  0  0  0  0
  6  4  1  0  0  0  0
  7  5  1  0  0  0  0
  8  3  2  0  0  0  0
  9  3  2  0  0  0  0
 10  3  1  0  0  0  0
 11  7  1  0  0  0  0
 12  4  1  0  0  0  0
 13  7  2  0  0  0  0
 14 11  1  0  0  0  0
 15 13  1  0  0  0  0
 16 10  1  0  0  0  0
 17 10  2  0  0  0  0
 18 12  1  0  0  0  0
 19 16  2  0  0  0  0
 20 17  1  0  0  0  0
 21 20  2  0  0  0  0
  5  6  1  0  0  0  0
 21 19  1  0  0  0  0
 15 14  2  0  0  0  0
M  END
>  <Code> (P7127779)
P7127779

>  <Number of H-Donors> (P7127779)
1

>  <Number of H-Acceptors> (P7127779)
4

>  <Number of Rotatable bonds> (P7127779)
4

>  <CLogP> (P7127779)
2.600000000000000e+000

>  <Number of Rings> (P7127779)
3

>  <PSA> (P7127779)
9.370000000000002e+001

$$$$

  -ISIS-  11102212342D

 26 29  0  0  0  0  0  0  0  0999 V2000
    2.8542   -5.4167    0.0000 N   0  0  3  0  0  0  0  0  0  0  0  0
    2.1417   -5.8292    0.0000 C   0  0  0  0  0  0  0  0  0  0  0  0
    2.8542   -4.5917    0.0000 C   0  0  0  0  0  0  0  0  0  0  0  0
    2.1417   -4.1792    0.0000 N   0  0  0  0  0  0  0  0  0  0  0  0
    3.4667   -5.9667    0.0000 N   0  0  0  0  0  0  0  0  0  0  0  0
    1.4292   -5.4167    0.0000 C   0  0  0  0  0  0  0  0  0  0  0  0
    3.1375   -6.7167    0.0000 N   0  0  0  0  0  0  0  0  0  0  0  0
    2.3167   -6.6292    0.0000 N   0  0  0  0  0  0  0  0  0  0  0  0
    1.4292   -4.5917    0.0000 C   0  0  0  0  0  0  0  0  0  0  0  0
    3.5750   -4.1792    0.0000 S   0  0  0  0  0  0  0  0  0  0  0  0
    5.0042   -4.1792    0.0000 C   0  0  0  0  0  0  0  0  0  0  0  0
    5.7167   -4.5917    0.0000 N   0  0  0  0  0  0  0  0  0  0  0  0
    5.0042   -3.3542    0.0000 O   0  0  0  0  0  0  0  0  0  0  0  0
    4.2875   -4.5917    0.0000 C   0  0  0  0  0  0  0  0  0  0  0  0
    6.4292   -4.1792    0.0000 C   0  0  0  0  0  0  0  0  0  0  0  0
    0.7167   -5.8292    0.0000 C   0  0  0  0  0  0  0  0  0  0  0  0
    7.8542   -4.1792    0.0000 C   0  0  0  0  0  0  0  0  0  0  0  0
    8.5667   -4.5792    0.0000 C   0  0  0  0  0  0  0  0  0  0  0  0
    7.1417   -4.5917    0.0000 C   0  0  0  0  0  0  0  0  0  0  0  0
    9.2792   -4.1667    0.0000 Cl  0  0  0  0  0  0  0  0  0  0  0  0
    0.7167   -4.1792    0.0000 C   0  0  0  0  0  0  0  0  0  0  0  0
    7.8542   -5.8292    0.0000 C   0  0  0  0  0  0  0  0  0  0  0  0
    8.5667   -5.4167    0.0000 C   0  0  0  0  0  0  0  0  0  0  0  0
    7.1417   -5.4167    0.0000 C   0  0  0  0  0  0  0  0  0  0  0  0
    0.0042   -5.4167    0.0000 C   0  0  0  0  0  0  0  0  0  0  0  0
    0.0042   -4.5917    0.0000 C   0  0  0  0  0  0  0  0  0  0  0  0
  2  1  1  0  0  0  0
  3  1  1  0  0  0  0
  4  3  2  0  0  0  0
  5  1  1  0  0  0  0
  6  2  1  0  0  0  0
  7  5  2  0  0  0  0
  8  2  2  0  0  0  0
  9  4  1  0  0  0  0
 10  3  1  0  0  0  0
 11 14  1  0  0  0  0
 12 11  1  0  0  0  0
 13 11  2  0  0  0  0
 14 10  1  0  0  0  0
 15 12  1  0  0  0  0
 16  6  2  0  0  0  0
 17 19  1  0  0  0  0
 18 17  2  0  0  0  0
 19 15  1  0  0  0  0
 20 18  1  0  0  0  0
 21  9  2  0  0  0  0
 22 24  1  0  0  0  0
 23 22  2  0  0  0  0
 24 19  2  0  0  0  0
 25 16  1  0  0  0  0
 26 21  1  0  0  0  0
  7  8  1  0  0  0  0
  9  6  1  0  0  0  0
 25 26  2  0  0  0  0
 23 18  1  0  0  0  0
M  END
>  <Code> (P7126930)
P7126930

>  <Number of H-Donors> (P7126930)
1

>  <Number of H-Acceptors> (P7126930)
6

>  <Number of Rotatable bonds> (P7126930)
5

>  <CLogP> (P7126930)
2.700000000000000e+000

>  <Number of Rings> (P7126930)
4

>  <PSA> (P7126930)
1.104000000000000e+002

$$$$

  -ISIS-  11102212342D

 27 30  0  0  0  0  0  0  0  0999 V2000
   -0.8833   -4.3167    0.0000 N   0  0  3  0  0  0  0  0  0  0  0  0
   -1.5958   -4.7417    0.0000 C   0  0  0  0  0  0  0  0  0  0  0  0
   -0.8833   -3.4917    0.0000 C   0  0  0  0  0  0  0  0  0  0  0  0
   -1.6083   -3.0792    0.0000 N   0  0  0  0  0  0  0  0  0  0  0  0
   -0.2583   -4.8792    0.0000 N   0  0  0  0  0  0  0  0  0  0  0  0
   -2.3083   -4.3292    0.0000 C   0  0  0  0  0  0  0  0  0  0  0  0
   -0.5958   -5.6292    0.0000 N   0  0  0  0  0  0  0  0  0  0  0  0
   -1.4208   -5.5542    0.0000 N   0  0  0  0  0  0  0  0  0  0  0  0
    4.7917   -4.6042    0.0000 N   0  0  0  0  0  0  0  0  0  0  0  0
    4.0042   -4.8792    0.0000 C   0  0  0  0  0  0  0  0  0  0  0  0
   -2.3083   -3.5042    0.0000 C   0  0  0  0  0  0  0  0  0  0  0  0
    3.3292   -4.4042    0.0000 N   0  0  0  0  0  0  0  0  0  0  0  0
    4.8292   -5.9292    0.0000 N   0  0  0  0  0  0  0  0  0  0  0  0
    4.0292   -5.7042    0.0000 S   0  0  0  0  0  0  0  0  0  0  0  0
   -0.1708   -3.0792    0.0000 S   0  0  0  0  0  0  0  0  0  0  0  0
    5.2917   -5.2542    0.0000 C   0  0  0  0  0  0  0  0  0  0  0  0
    3.3917   -3.5917    0.0000 C   0  0  0  0  0  0  0  0  0  0  0  0
    1.2542   -3.0667    0.0000 C   0  0  0  0  0  0  0  0  0  0  0  0
    1.9667   -3.4792    0.0000 N   0  0  0  0  0  0  0  0  0  0  0  0
    4.1417   -3.2292    0.0000 O   0  0  0  0  0  0  0  0  0  0  0  0
    1.2417   -2.2417    0.0000 O   0  0  0  0  0  0  0  0  0  0  0  0
    0.5417   -3.4792    0.0000 C   0  0  0  0  0  0  0  0  0  0  0  0
    2.7167   -3.1167    0.0000 C   0  0  0  0  0  0  0  0  0  0  0  0
   -3.0333   -4.7417    0.0000 C   0  0  0  0  0  0  0  0  0  0  0  0
   -3.0333   -3.0917    0.0000 C   0  0  0  0  0  0  0  0  0  0  0  0
   -3.7458   -4.3292    0.0000 C   0  0  0  0  0  0  0  0  0  0  0  0
   -3.7458   -3.5042    0.0000 C   0  0  0  0  0  0  0  0  0  0  0  0
  2  1  1  0  0  0  0
  3  1  1  0  0  0  0
  4  3  2  0  0  0  0
  5  1  1  0  0  0  0
  6  2  1  0  0  0  0
  7  5  2  0  0  0  0
  8  2  2  0  0  0  0
  9 10  2  0  0  0  0
 10 12  1  0  0  0  0
 11  4  1  0  0  0  0
 12 17  1  0  0  0  0
 13 14  1  0  0  0  0
 14 10  1  0  0  0  0
 15  3  1  0  0  0  0
 16  9  1  0  0  0  0
 17 23  1  0  0  0  0
 18 22  1  0  0  0  0
 19 18  1  0  0  0  0
 20 17  2  0  0  0  0
 21 18  2  0  0  0  0
 22 15  1  0  0  0  0
 23 19  1  0  0  0  0
 24  6  2  0  0  0  0
 25 11  2  0  0  0  0
 26 24  1  0  0  0  0
 27 25  1  0  0  0  0
  8  7  1  0  0  0  0
 11  6  1  0  0  0  0
 27 26  2  0  0  0  0
 13 16  2  0  0  0  0
M  END
>  <Code> (P7126910)
P7126910

>  <Number of H-Donors> (P7126910)
2

>  <Number of H-Acceptors> (P7126910)
9

>  <Number of Rotatable bonds> (P7126910)
6

>  <CLogP> (P7126910)
0.000000000000000e+000

>  <Number of Rings> (P7126910)
4

>  <PSA> (P7126910)
1.935000000000000e+002

$$$$

  -ISIS-  11102212342D

 25 28  0  0  0  0  0  0  0  0999 V2000
    3.6625   -0.2625    0.0000 C   0  0  0  0  0  0  0  0  0  0  0  0
    4.3792    0.1500    0.0000 N   0  0  3  0  0  0  0  0  0  0  0  0
    3.8292   -1.0667    0.0000 N   0  0  0  0  0  0  0  0  0  0  0  0
    4.9917   -0.4042    0.0000 N   0  0  0  0  0  0  0  0  0  0  0  0
    4.6542   -1.1542    0.0000 C   0  0  0  0  0  0  0  0  0  0  0  0
    2.9500    0.1458    0.0000 C   0  0  0  0  0  0  0  0  0  0  0  0
    3.6542    1.3875    0.0000 N   0  0  0  0  0  0  0  0  0  0  0  0
    4.3750    0.9833    0.0000 C   0  0  0  0  0  0  0  0  0  0  0  0
    2.9500    0.9708    0.0000 C   0  0  0  0  0  0  0  0  0  0  0  0
    6.3042   -2.5875    0.0000 C   0  0  0  0  0  0  0  0  0  0  0  0
    5.0667   -1.8750    0.0000 S   0  0  0  0  0  0  0  0  0  0  0  0
    7.1292   -2.5875    0.0000 N   0  0  0  0  0  0  0  0  0  0  0  0
    7.5417   -1.8667    0.0000 C   0  0  0  0  0  0  0  0  0  0  0  0
    5.8917   -3.3042    0.0000 O   0  0  0  0  0  0  0  0  0  0  0  0
    5.8917   -1.8750    0.0000 C   0  0  0  0  0  0  0  0  0  0  0  0
    8.3667   -1.8750    0.0000 C   0  0  0  0  0  0  0  0  0  0  0  0
    2.2292   -0.2667    0.0000 C   0  0  0  0  0  0  0  0  0  0  0  0
    8.7750   -1.1542    0.0000 C   0  0  0  0  0  0  0  0  0  0  0  0
    7.5292   -0.4500    0.0000 C   0  0  0  0  0  0  0  0  0  0  0  0
    7.1250   -1.1625    0.0000 C   0  0  0  0  0  0  0  0  0  0  0  0
    2.2292    1.3833    0.0000 C   0  0  0  0  0  0  0  0  0  0  0  0
    8.3625   -0.4417    0.0000 C   0  0  0  0  0  0  0  0  0  0  0  0
    9.6000   -1.1542    0.0000 C   0  0  0  0  0  0  0  0  0  0  0  0
    1.5167    0.1458    0.0000 C   0  0  0  0  0  0  0  0  0  0  0  0
    1.5167    0.9708    0.0000 C   0  0  0  0  0  0  0  0  0  0  0  0
  2  1  1  0  0  0  0
  3  1  2  0  0  0  0
  4  2  1  0  0  0  0
  5  3  1  0  0  0  0
  6  1  1  0  0  0  0
  7  9  1  0  0  0  0
  8  2  1  0  0  0  0
  9  6  1  0  0  0  0
 10 15  1  0  0  0  0
 11  5  1  0  0  0  0
 12 10  1  0  0  0  0
 13 12  1  0  0  0  0
 14 10  2  0  0  0  0
 15 11  1  0  0  0  0
 16 13  2  0  0  0  0
 17  6  2  0  0  0  0
 18 16  1  0  0  0  0
 19 20  2  0  0  0  0
 20 13  1  0  0  0  0
 21  9  2  0  0  0  0
 22 19  1  0  0  0  0
 23 18  1  0  0  0  0
 24 17  1  0  0  0  0
 25 24  2  0  0  0  0
  4  5  2  0  0  0  0
  7  8  2  0  0  0  0
 25 21  1  0  0  0  0
 22 18  2  0  0  0  0
M  END
>  <Code> (P7126388)
P7126388

>  <Number of H-Donors> (P7126388)
1

>  <Number of H-Acceptors> (P7126388)
5

>  <Number of Rotatable bonds> (P7126388)
4

>  <CLogP> (P7126388)
3.500000000000000e+000

>  <Number of Rings> (P7126388)
4

>  <PSA> (P7126388)
9.750000000000000e+001

$$$$

  -ISIS-  11102212342D

 24 26  0  0  0  0  0  0  0  0999 V2000
   -0.5250   -0.9542    0.0000 C   0  0  0  0  0  0  0  0  0  0  0  0
   -1.3500   -0.9542    0.0000 C   0  0  0  0  0  0  0  0  0  0  0  0
    0.7792   -0.3792    0.0000 C   0  0  0  0  0  0  0  0  0  0  0  0
   -0.0375   -0.2917    0.0000 N   0  0  0  0  0  0  0  0  0  0  0  0
   -0.2750   -1.7417    0.0000 N   0  0  0  0  0  0  0  0  0  0  0  0
    1.2667    0.2833    0.0000 C   0  0  0  0  0  0  0  0  0  0  0  0
   -1.6083   -1.7417    0.0000 N   0  0  0  0  0  0  0  0  0  0  0  0
   -0.9458   -2.2292    0.0000 O   0  0  0  0  0  0  0  0  0  0  0  0
    2.0875    0.1958    0.0000 C   0  0  0  0  0  0  0  0  0  0  0  0
    0.9292    1.0333    0.0000 C   0  0  0  0  0  0  0  0  0  0  0  0
   -1.8333   -0.2917    0.0000 C   0  0  0  0  0  0  0  0  0  0  0  0
    2.5750    0.8583    0.0000 C   0  0  0  0  0  0  0  0  0  0  0  0
    1.1167   -1.1375    0.0000 O   0  0  0  0  0  0  0  0  0  0  0  0
   -2.6500   -0.3750    0.0000 C   0  0  0  0  0  0  0  0  0  0  0  0
   -1.4958    0.4583    0.0000 C   0  0  0  0  0  0  0  0  0  0  0  0
    2.2417    1.6208    0.0000 C   0  0  0  0  0  0  0  0  0  0  0  0
    2.4167   -0.5625    0.0000 Cl  0  0  0  0  0  0  0  0  0  0  0  0
    1.4167    1.7000    0.0000 C   0  0  0  0  0  0  0  0  0  0  0  0
   -2.7958    1.0458    0.0000 C   0  0  0  0  0  0  0  0  0  0  0  0
   -3.1333    0.2875    0.0000 C   0  0  0  0  0  0  0  0  0  0  0  0
   -1.9750    1.1333    0.0000 C   0  0  0  0  0  0  0  0  0  0  0  0
    2.7292    2.2833    0.0000 Cl  0  0  0  0  0  0  0  0  0  0  0  0
   -3.2833    1.7208    0.0000 O   0  0  0  0  0  0  0  0  0  0  0  0
   -4.1000    1.6333    0.0000 C   0  0  0  0  0  0  0  0  0  0  0  0
  2  1  1  0  0  0  0
  3  4  1  0  0  0  0
  4  1  1  0  0  0  0
  5  1  2  0  0  0  0
  6  3  1  0  0  0  0
  7  2  2  0  0  0  0
  8  5  1  0  0  0  0
  9  6  2  0  0  0  0
 10  6  1  0  0  0  0
 11  2  1  0  0  0  0
 12  9  1  0  0  0  0
 13  3  2  0  0  0  0
 14 11  1  0  0  0  0
 15 11  2  0  0  0  0
 16 18  1  0  0  0  0
 17  9  1  0  0  0  0
 18 10  2  0  0  0  0
 19 21  2  0  0  0  0
 20 14  2  0  0  0  0
 21 15  1  0  0  0  0
 22 16  1  0  0  0  0
 23 19  1  0  0  0  0
 24 23  1  0  0  0  0
  7  8  1  0  0  0  0
 20 19  1  0  0  0  0
 12 16  2  0  0  0  0
M  END
>  <Code> (P7119985631)
P7119985631

>  <Number of H-Donors> (P7119985631)
1

>  <Number of H-Acceptors> (P7119985631)
4

>  <Number of Rotatable bonds> (P7119985631)
4

>  <CLogP> (P7119985631)
4.200000000000000e+000

>  <Number of Rings> (P7119985631)
3

>  <PSA> (P7119985631)
7.730000000000001e+001

$$$$

  -ISIS-  11102212342D

 29 32  0  0  0  0  0  0  0  0999 V2000
   -1.0333    1.0083    0.0000 C   0  0  0  0  0  0  0  0  0  0  0  0
    0.8292   -1.0792    0.0000 S   0  0  3  0  0  0  0  0  0  0  0  0
   -0.3125    1.4250    0.0000 C   0  0  0  0  0  0  0  0  0  0  0  0
   -1.8083    1.3458    0.0000 C   0  0  0  0  0  0  0  0  0  0  0  0
   -1.1125    0.1833    0.0000 O   0  0  0  0  0  0  0  0  0  0  0  0
   -2.3458    0.7250    0.0000 C   0  0  0  0  0  0  0  0  0  0  0  0
   -1.9250    0.0083    0.0000 C   0  0  0  0  0  0  0  0  0  0  0  0
    0.4000    1.0125    0.0000 N   0  0  3  0  0  0  0  0  0  0  0  0
    1.0875   -0.2875    0.0000 C   0  0  0  0  0  0  0  0  0  0  0  0
    0.4042    0.1833    0.0000 C   0  0  3  0  0  0  0  0  0  0  0  0
    1.8375    1.0250    0.0000 C   0  0  0  0  0  0  0  0  0  0  0  0
   -2.3333   -0.7000    0.0000 C   0  0  0  0  0  0  0  0  0  0  0  0
    1.9250    0.2083    0.0000 O   0  0  0  0  0  0  0  0  0  0  0  0
    1.1167    1.4333    0.0000 C   0  0  0  0  0  0  0  0  0  0  0  0
    2.7292    0.0458    0.0000 C   0  0  0  0  0  0  0  0  0  0  0  0
    2.5875    1.3708    0.0000 C   0  0  0  0  0  0  0  0  0  0  0  0
    1.6625   -1.1375    0.0000 O   0  0  0  0  0  0  0  0  0  0  0  0
    0.7875   -1.9042    0.0000 O   0  0  0  0  0  0  0  0  0  0  0  0
   -3.1708    0.7208    0.0000 C   0  0  0  0  0  0  0  0  0  0  0  0
    3.1417    0.7750    0.0000 C   0  0  0  0  0  0  0  0  0  0  0  0
   -0.2500   -0.3000    0.0000 C   0  0  0  0  0  0  0  0  0  0  0  0
   -0.3208    2.2583    0.0000 O   0  0  0  0  0  0  0  0  0  0  0  0
    0.0042   -1.0875    0.0000 C   0  0  0  0  0  0  0  0  0  0  0  0
   -3.1583   -0.7042    0.0000 C   0  0  0  0  0  0  0  0  0  0  0  0
   -3.5708    0.0083    0.0000 C   0  0  0  0  0  0  0  0  0  0  0  0
   -1.9875    2.1458    0.0000 C   0  0  0  0  0  0  0  0  0  0  0  0
   -1.9125   -1.4125    0.0000 C   0  0  0  0  0  0  0  0  0  0  0  0
    3.0750   -0.7000    0.0000 C   0  0  0  0  0  0  0  0  0  0  0  0
   -4.4083   -0.0000    0.0000 C   0  0  0  0  0  0  0  0  0  0  0  0
  2  9  1  0  0  0  0
  3  1  1  0  0  0  0
  4  1  2  0  0  0  0
  5  1  1  0  0  0  0
  6  4  1  0  0  0  0
  7  5  1  0  0  0  0
  8  3  1  0  0  0  0
  9 10  1  0  0  0  0
 10  8  1  0  0  0  0
 11 14  1  0  0  0  0
 12  7  1  0  0  0  0
 13 11  1  0  0  0  0
 14  8  1  0  0  0  0
 15 13  1  0  0  0  0
 16 11  2  0  0  0  0
 17  2  2  0  0  0  0
 18  2  2  0  0  0  0
 19  6  1  0  0  0  0
 20 16  1  0  0  0  0
 21 10  1  0  0  0  0
 22  3  2  0  0  0  0
 23 21  1  0  0  0  0
 24 12  2  0  0  0  0
 25 19  2  0  0  0  0
 26  4  1  0  0  0  0
 27 12  1  0  0  0  0
 28 15  1  0  0  0  0
 29 25  1  0  0  0  0
  7  6  2  0  0  0  0
 25 24  1  0  0  0  0
 23  2  1  0  0  0  0
 15 20  2  0  0  0  0
M  END
>  <Code> (P7119985581)
P7119985581

>  <Number of H-Donors> (P7119985581)
0

>  <Number of H-Acceptors> (P7119985581)
3

>  <Number of Rotatable bonds> (P7119985581)
4

>  <CLogP> (P7119985581)
3.700000000000000e+000

>  <Number of Rings> (P7119985581)
4

>  <PSA> (P7119985581)
8.910000000000002e+001

$$$$

  -ISIS-  11102212342D

 27 29  0  0  0  0  0  0  0  0999 V2000
   -0.1000   -1.6167    0.0000 C   0  0  0  0  0  0  0  0  0  0  0  0
   -0.9333   -1.6292    0.0000 C   0  0  0  0  0  0  0  0  0  0  0  0
    0.1625   -2.4000    0.0000 N   0  0  0  0  0  0  0  0  0  0  0  0
    0.3667   -0.9417    0.0000 N   0  0  0  0  0  0  0  0  0  0  0  0
   -1.1708   -2.4250    0.0000 N   0  0  0  0  0  0  0  0  0  0  0  0
   -0.4958   -2.8917    0.0000 O   0  0  0  0  0  0  0  0  0  0  0  0
    1.1917   -1.0167    0.0000 C   0  0  0  0  0  0  0  0  0  0  0  0
   -1.4333   -0.9667    0.0000 C   0  0  0  0  0  0  0  0  0  0  0  0
    1.6667   -0.3375    0.0000 C   0  0  3  0  0  0  0  0  0  0  0  0
    2.4917   -0.4125    0.0000 O   0  0  0  0  0  0  0  0  0  0  0  0
    1.5417   -1.7667    0.0000 O   0  0  0  0  0  0  0  0  0  0  0  0
   -1.0958   -0.2125    0.0000 C   0  0  0  0  0  0  0  0  0  0  0  0
   -2.2375   -1.0667    0.0000 C   0  0  0  0  0  0  0  0  0  0  0  0
    2.9625    0.2625    0.0000 C   0  0  0  0  0  0  0  0  0  0  0  0
   -2.4125    0.3458    0.0000 C   0  0  0  0  0  0  0  0  0  0  0  0
   -2.7333   -0.4125    0.0000 C   0  0  0  0  0  0  0  0  0  0  0  0
   -1.5958    0.4458    0.0000 C   0  0  0  0  0  0  0  0  0  0  0  0
    3.9042    1.6083    0.0000 C   0  0  0  0  0  0  0  0  0  0  0  0
    2.6125    1.0083    0.0000 C   0  0  0  0  0  0  0  0  0  0  0  0
    3.7792    0.1833    0.0000 C   0  0  0  0  0  0  0  0  0  0  0  0
    4.2542    0.8583    0.0000 C   0  0  0  0  0  0  0  0  0  0  0  0
    3.0792    1.6833    0.0000 C   0  0  0  0  0  0  0  0  0  0  0  0
   -2.9000    1.0083    0.0000 O   0  0  0  0  0  0  0  0  0  0  0  0
    1.3167    0.4000    0.0000 C   0  0  0  0  0  0  0  0  0  0  0  0
    4.3792    2.2833    0.0000 C   0  0  0  0  0  0  0  0  0  0  0  0
   -2.5875    1.7583    0.0000 C   0  0  0  0  0  0  0  0  0  0  0  0
    5.2000    2.2125    0.0000 C   0  0  0  0  0  0  0  0  0  0  0  0
  2  1  1  0  0  0  0
  3  1  2  0  0  0  0
  4  1  1  0  0  0  0
  5  2  2  0  0  0  0
  6  3  1  0  0  0  0
  7  4  1  0  0  0  0
  8  2  1  0  0  0  0
  9  7  1  0  0  0  0
 10  9  1  0  0  0  0
 11  7  2  0  0  0  0
 12  8  2  0  0  0  0
 13  8  1  0  0  0  0
 14 10  1  0  0  0  0
 15 16  1  0  0  0  0
 16 13  2  0  0  0  0
 17 12  1  0  0  0  0
 18 21  2  0  0  0  0
 19 14  1  0  0  0  0
 20 14  2  0  0  0  0
 21 20  1  0  0  0  0
 22 19  2  0  0  0  0
 23 15  1  0  0  0  0
 24  9  1  0  0  0  0
 25 18  1  0  0  0  0
 26 23  1  0  0  0  0
 27 25  1  0  0  0  0
  5  6  1  0  0  0  0
 17 15  2  0  0  0  0
 18 22  1  0  0  0  0
M  END
>  <Code> (P7119982923)
P7119982923

>  <Number of H-Donors> (P7119982923)
1

>  <Number of H-Acceptors> (P7119982923)
5

>  <Number of Rotatable bonds> (P7119982923)
7

>  <CLogP> (P7119982923)
4.200000000000000e+000

>  <Number of Rings> (P7119982923)
3

>  <PSA> (P7119982923)
8.650000000000000e+001

$$$$

  -ISIS-  11102212342D

 26 29  0  0  0  0  0  0  0  0999 V2000
   -3.1333    2.3583    0.0000 C   0  0  0  0  0  0  0  0  0  0  0  0
   -1.2708    0.2750    0.0000 S   0  0  3  0  0  0  0  0  0  0  0  0
   -2.4083    2.7750    0.0000 C   0  0  0  0  0  0  0  0  0  0  0  0
   -3.2083    1.5333    0.0000 O   0  0  0  0  0  0  0  0  0  0  0  0
   -3.9000    2.6875    0.0000 C   0  0  0  0  0  0  0  0  0  0  0  0
   -1.6875    2.3583    0.0000 N   0  0  3  0  0  0  0  0  0  0  0  0
   -1.0208    1.0583    0.0000 C   0  0  0  0  0  0  0  0  0  0  0  0
   -4.4375    2.0708    0.0000 C   0  0  0  0  0  0  0  0  0  0  0  0
   -1.6875    1.5333    0.0000 C   0  0  3  0  0  0  0  0  0  0  0  0
   -4.0333    1.3625    0.0000 C   0  0  0  0  0  0  0  0  0  0  0  0
   -0.2625    2.3708    0.0000 C   0  0  0  0  0  0  0  0  0  0  0  0
   -0.9833    2.7833    0.0000 C   0  0  0  0  0  0  0  0  0  0  0  0
   -0.4583    0.1125    0.0000 O   0  0  0  0  0  0  0  0  0  0  0  0
   -1.4125   -0.5417    0.0000 O   0  0  0  0  0  0  0  0  0  0  0  0
   -2.3583    1.0500    0.0000 C   0  0  0  0  0  0  0  0  0  0  0  0
   -2.4208    3.6083    0.0000 O   0  0  0  0  0  0  0  0  0  0  0  0
   -2.0958    0.2625    0.0000 C   0  0  0  0  0  0  0  0  0  0  0  0
   -0.1708    1.5375    0.0000 O   0  0  0  0  0  0  0  0  0  0  0  0
    0.4917    2.7125    0.0000 C   0  0  0  0  0  0  0  0  0  0  0  0
    0.6375    1.3833    0.0000 C   0  0  0  0  0  0  0  0  0  0  0  0
    1.0542    2.1083    0.0000 C   0  0  0  0  0  0  0  0  0  0  0  0
   -4.0833    3.4958    0.0000 C   0  0  0  0  0  0  0  0  0  0  0  0
   -5.2583    2.0708    0.0000 C   0  0  0  0  0  0  0  0  0  0  0  0
   -4.4333    0.6458    0.0000 C   0  0  0  0  0  0  0  0  0  0  0  0
   -5.6708    1.3583    0.0000 C   0  0  0  0  0  0  0  0  0  0  0  0
   -5.2458    0.6375    0.0000 C   0  0  0  0  0  0  0  0  0  0  0  0
  2  7  1  0  0  0  0
  3  1  1  0  0  0  0
  4  1  1  0  0  0  0
  5  1  2  0  0  0  0
  6  3  1  0  0  0  0
  7  9  1  0  0  0  0
  8  5  1  0  0  0  0
  9  6  1  0  0  0  0
 10  4  1  0  0  0  0
 11 12  1  0  0  0  0
 12  6  1  0  0  0  0
 13  2  2  0  0  0  0
 14  2  2  0  0  0  0
 15  9  1  0  0  0  0
 16  3  2  0  0  0  0
 17 15  1  0  0  0  0
 18 11  1  0  0  0  0
 19 11  2  0  0  0  0
 20 18  1  0  0  0  0
 21 19  1  0  0  0  0
 22  5  1  0  0  0  0
 23  8  1  0  0  0  0
 24 10  1  0  0  0  0
 25 23  2  0  0  0  0
 26 24  2  0  0  0  0
  8 10  2  0  0  0  0
 26 25  1  0  0  0  0
  2 17  1  0  0  0  0
 21 20  2  0  0  0  0
M  END
>  <Code> (P7119981812)
P7119981812

>  <Number of H-Donors> (P7119981812)
0

>  <Number of H-Acceptors> (P7119981812)
3

>  <Number of Rotatable bonds> (P7119981812)
4

>  <CLogP> (P7119981812)
2.600000000000000e+000

>  <Number of Rings> (P7119981812)
4

>  <PSA> (P7119981812)
8.910000000000002e+001

$$$$

  -ISIS-  11102212342D

 30 34  0  0  0  0  0  0  0  0999 V2000
   -0.2708   -2.4167    0.0000 C   0  0  0  0  0  0  0  0  0  0  0  0
   -0.5208   -1.6250    0.0000 C   0  0  0  0  0  0  0  0  0  0  0  0
    0.8125   -1.6292    0.0000 N   0  0  3  0  0  0  0  0  0  0  0  0
   -1.3458   -1.6167    0.0000 C   0  0  0  0  0  0  0  0  0  0  0  0
    0.5542   -2.4167    0.0000 C   0  0  0  0  0  0  0  0  0  0  0  0
    0.1500   -1.1417    0.0000 C   0  0  3  0  0  0  0  0  0  0  0  0
   -1.6083   -2.4042    0.0000 N   0  0  0  0  0  0  0  0  0  0  0  0
   -0.9458   -2.8917    0.0000 N   0  0  0  0  0  0  0  0  0  0  0  0
   -2.0625   -1.2042    0.0000 C   0  0  0  0  0  0  0  0  0  0  0  0
    0.1500   -0.3250    0.0000 C   0  0  0  0  0  0  0  0  0  0  0  0
    1.6042   -1.3792    0.0000 C   0  0  0  0  0  0  0  0  0  0  0  0
    2.2125   -1.9417    0.0000 C   0  0  0  0  0  0  0  0  0  0  0  0
   -2.7708   -1.6292    0.0000 C   0  0  0  0  0  0  0  0  0  0  0  0
    1.0292   -3.0875    0.0000 O   0  0  0  0  0  0  0  0  0  0  0  0
   -2.0708   -0.3875    0.0000 C   0  0  0  0  0  0  0  0  0  0  0  0
    2.1167   -2.7625    0.0000 O   0  0  0  0  0  0  0  0  0  0  0  0
    0.8667    0.0833    0.0000 C   0  0  0  0  0  0  0  0  0  0  0  0
    3.0167   -1.7750    0.0000 C   0  0  0  0  0  0  0  0  0  0  0  0
    2.8667   -3.1000    0.0000 C   0  0  0  0  0  0  0  0  0  0  0  0
    3.4292   -2.4750    0.0000 C   0  0  0  0  0  0  0  0  0  0  0  0
   -3.4958   -1.2292    0.0000 C   0  0  0  0  0  0  0  0  0  0  0  0
   -2.7833    0.0125    0.0000 C   0  0  0  0  0  0  0  0  0  0  0  0
    1.5792   -0.3375    0.0000 F   0  0  0  0  0  0  0  0  0  0  0  0
   -3.4958   -0.4000    0.0000 C   0  0  0  0  0  0  0  0  0  0  0  0
   -2.7583   -2.4500    0.0000 O   0  0  0  0  0  0  0  0  0  0  0  0
   -0.5583    0.0875    0.0000 C   0  0  0  0  0  0  0  0  0  0  0  0
    0.8792    0.9083    0.0000 C   0  0  0  0  0  0  0  0  0  0  0  0
   -2.7875    0.8333    0.0000 C   0  0  0  0  0  0  0  0  0  0  0  0
   -0.5458    0.9083    0.0000 C   0  0  0  0  0  0  0  0  0  0  0  0
    0.1667    1.3208    0.0000 C   0  0  0  0  0  0  0  0  0  0  0  0
  2  1  2  0  0  0  0
  3  5  1  0  0  0  0
  4  2  1  0  0  0  0
  5  1  1  0  0  0  0
  6  2  1  0  0  0  0
  7  8  1  0  0  0  0
  8  1  1  0  0  0  0
  9  4  1  0  0  0  0
 10  6  1  0  0  0  0
 11  3  1  0  0  0  0
 12 11  1  0  0  0  0
 13  9  1  0  0  0  0
 14  5  2  0  0  0  0
 15  9  2  0  0  0  0
 16 12  1  0  0  0  0
 17 10  2  0  0  0  0
 18 12  2  0  0  0  0
 19 16  1  0  0  0  0
 20 18  1  0  0  0  0
 21 13  2  0  0  0  0
 22 15  1  0  0  0  0
 23 17  1  0  0  0  0
 24 22  2  0  0  0  0
 25 13  1  0  0  0  0
 26 10  1  0  0  0  0
 27 17  1  0  0  0  0
 28 22  1  0  0  0  0
 29 26  2  0  0  0  0
 30 29  1  0  0  0  0
  4  7  2  0  0  0  0
  3  6  1  0  0  0  0
 19 20  2  0  0  0  0
 27 30  2  0  0  0  0
 21 24  1  0  0  0  0
M  END
>  <Code> (P7119980719)
P7119980719

>  <Number of H-Donors> (P7119980719)
2

>  <Number of H-Acceptors> (P7119980719)
3

>  <Number of Rotatable bonds> (P7119980719)
4

>  <CLogP> (P7119980719)
4.500000000000000e+000

>  <Number of Rings> (P7119980719)
5

>  <PSA> (P7119980719)
8.240000000000001e+001

$$$$

  -ISIS-  11102212342D

 35 40  0  0  0  0  0  0  0  0999 V2000
    7.9875   -5.3125    0.0000 N   0  0  3  0  0  0  0  0  0  0  0  0
    7.9875   -6.1375    0.0000 C   0  0  0  0  0  0  0  0  0  0  0  0
    7.5542   -4.0292    0.0000 C   0  0  0  0  0  0  0  0  0  0  0  0
    8.6542   -4.8250    0.0000 C   0  0  0  0  0  0  0  0  0  0  0  0
    8.3875   -4.0250    0.0000 C   0  0  0  0  0  0  0  0  0  0  0  0
    7.3125   -4.8250    0.0000 C   0  0  3  0  0  0  0  0  0  0  0  0
    7.3042   -6.6250    0.0000 N   0  0  0  0  0  0  0  0  0  0  0  0
    8.6417   -6.6167    0.0000 S   0  0  0  0  0  0  0  0  0  0  0  0
    7.0792   -3.3625    0.0000 C   0  0  0  0  0  0  0  0  0  0  0  0
    8.3875   -7.4000    0.0000 C   0  0  0  0  0  0  0  0  0  0  0  0
    7.5625   -7.4000    0.0000 C   0  0  0  0  0  0  0  0  0  0  0  0
    6.2542   -3.3625    0.0000 C   0  0  0  0  0  0  0  0  0  0  0  0
    5.0250   -2.6292    0.0000 C   0  0  0  0  0  0  0  0  0  0  0  0
    6.5667   -5.2292    0.0000 C   0  0  0  0  0  0  0  0  0  0  0  0
    5.8417   -2.6375    0.0000 C   0  0  0  0  0  0  0  0  0  0  0  0
    8.7917   -8.1125    0.0000 C   0  0  0  0  0  0  0  0  0  0  0  0
    9.4292   -5.0750    0.0000 O   0  0  0  0  0  0  0  0  0  0  0  0
    4.6000   -3.3417    0.0000 C   0  0  0  0  0  0  0  0  0  0  0  0
    7.4042   -2.6125    0.0000 O   0  0  0  0  0  0  0  0  0  0  0  0
    4.6125   -1.9125    0.0000 O   0  0  0  0  0  0  0  0  0  0  0  0
    5.8375   -4.0625    0.0000 C   0  0  0  0  0  0  0  0  0  0  0  0
    3.7750   -3.3375    0.0000 O   0  0  0  0  0  0  0  0  0  0  0  0
    8.8792   -3.3625    0.0000 O   0  0  0  0  0  0  0  0  0  0  0  0
    5.8125   -6.4792    0.0000 N   0  0  0  0  0  0  0  0  0  0  0  0
    7.1542   -8.1125    0.0000 C   0  0  0  0  0  0  0  0  0  0  0  0
    5.0125   -4.0625    0.0000 C   0  0  0  0  0  0  0  0  0  0  0  0
    8.3875   -8.8167    0.0000 C   0  0  0  0  0  0  0  0  0  0  0  0
    7.5625   -8.8167    0.0000 C   0  0  0  0  0  0  0  0  0  0  0  0
    6.5542   -6.0667    0.0000 C   0  0  0  0  0  0  0  0  0  0  0  0
    8.8042   -9.5292    0.0000 F   0  0  0  0  0  0  0  0  0  0  0  0
    5.8500   -4.7875    0.0000 C   0  0  0  0  0  0  0  0  0  0  0  0
    5.0875   -6.0375    0.0000 C   0  0  0  0  0  0  0  0  0  0  0  0
    3.7875   -1.9042    0.0000 C   0  0  0  0  0  0  0  0  0  0  0  0
    3.3667   -2.6167    0.0000 C   0  0  0  0  0  0  0  0  0  0  0  0
    5.1042   -5.1917    0.0000 C   0  0  0  0  0  0  0  0  0  0  0  0
  2  1  1  0  0  0  0
  3  6  1  0  0  0  0
  4  1  1  0  0  0  0
  5  4  1  0  0  0  0
  6  1  1  0  0  0  0
  7  2  2  0  0  0  0
  8  2  1  0  0  0  0
  9  3  1  0  0  0  0
 10  8  1  0  0  0  0
 11  7  1  0  0  0  0
 12  9  1  0  0  0  0
 13 15  1  0  0  0  0
 14  6  1  0  0  0  0
 15 12  2  0  0  0  0
 16 10  1  0  0  0  0
 17  4  2  0  0  0  0
 18 26  1  0  0  0  0
 19  9  2  0  0  0  0
 20 13  1  0  0  0  0
 21 12  1  0  0  0  0
 22 18  1  0  0  0  0
 23  5  1  0  0  0  0
 24 29  2  0  0  0  0
 25 11  1  0  0  0  0
 26 21  2  0  0  0  0
 27 16  2  0  0  0  0
 28 25  2  0  0  0  0
 29 14  1  0  0  0  0
 30 27  1  0  0  0  0
 31 14  2  0  0  0  0
 32 35  2  0  0  0  0
 33 20  1  0  0  0  0
 34 22  1  0  0  0  0
 35 31  1  0  0  0  0
  5  3  2  0  0  0  0
 10 11  2  0  0  0  0
 24 32  1  0  0  0  0
 28 27  1  0  0  0  0
 18 13  2  0  0  0  0
 33 34  1  0  0  0  0
M  END
>  <Code> (P7119980244)
P7119980244

>  <Number of H-Donors> (P7119980244)
1

>  <Number of H-Acceptors> (P7119980244)
7

>  <Number of Rotatable bonds> (P7119980244)
4

>  <CLogP> (P7119980244)
3.400000000000000e+000

>  <Number of Rings> (P7119980244)
6

>  <PSA> (P7119980244)
1.301000000000000e+002

$$$$

  -ISIS-  11102212342D

 30 34  0  0  0  0  0  0  0  0999 V2000
   -0.5458   -2.5625    0.0000 C   0  0  0  0  0  0  0  0  0  0  0  0
   -0.7958   -1.7667    0.0000 C   0  0  0  0  0  0  0  0  0  0  0  0
    0.5375   -1.7792    0.0000 N   0  0  3  0  0  0  0  0  0  0  0  0
   -1.6208   -1.7667    0.0000 C   0  0  0  0  0  0  0  0  0  0  0  0
    0.2792   -2.5667    0.0000 C   0  0  0  0  0  0  0  0  0  0  0  0
   -0.1208   -1.2917    0.0000 C   0  0  3  0  0  0  0  0  0  0  0  0
   -1.8750   -2.5500    0.0000 N   0  0  0  0  0  0  0  0  0  0  0  0
   -1.2208   -3.0375    0.0000 N   0  0  0  0  0  0  0  0  0  0  0  0
   -2.2500   -1.2292    0.0000 C   0  0  0  0  0  0  0  0  0  0  0  0
   -0.1208   -0.4667    0.0000 C   0  0  0  0  0  0  0  0  0  0  0  0
    1.3292   -1.5292    0.0000 C   0  0  0  0  0  0  0  0  0  0  0  0
    0.7625   -3.2375    0.0000 O   0  0  0  0  0  0  0  0  0  0  0  0
    0.6000   -0.0625    0.0000 C   0  0  0  0  0  0  0  0  0  0  0  0
   -3.0208   -1.5167    0.0000 C   0  0  0  0  0  0  0  0  0  0  0  0
    3.1625   -3.2000    0.0000 N   0  0  0  0  0  0  0  0  0  0  0  0
    1.3042   -0.4750    0.0000 F   0  0  0  0  0  0  0  0  0  0  0  0
    1.9375   -2.0875    0.0000 C   0  0  0  0  0  0  0  0  0  0  0  0
   -3.1583   -2.3292    0.0000 O   0  0  0  0  0  0  0  0  0  0  0  0
   -2.1125   -0.4250    0.0000 C   0  0  0  0  0  0  0  0  0  0  0  0
   -0.8333   -0.0500    0.0000 C   0  0  0  0  0  0  0  0  0  0  0  0
    2.3792   -3.4542    0.0000 C   0  0  0  0  0  0  0  0  0  0  0  0
    3.3375   -2.3917    0.0000 C   0  0  0  0  0  0  0  0  0  0  0  0
    0.6042    0.7625    0.0000 C   0  0  0  0  0  0  0  0  0  0  0  0
   -3.6583   -0.9917    0.0000 C   0  0  0  0  0  0  0  0  0  0  0  0
    2.7292   -1.8375    0.0000 C   0  0  0  0  0  0  0  0  0  0  0  0
    1.7667   -2.8917    0.0000 C   0  0  0  0  0  0  0  0  0  0  0  0
   -2.7375    0.1000    0.0000 C   0  0  0  0  0  0  0  0  0  0  0  0
   -0.8208    0.7708    0.0000 C   0  0  0  0  0  0  0  0  0  0  0  0
   -3.5208   -0.1750    0.0000 C   0  0  0  0  0  0  0  0  0  0  0  0
   -0.1000    1.1833    0.0000 C   0  0  0  0  0  0  0  0  0  0  0  0
  2  1  2  0  0  0  0
  3  5  1  0  0  0  0
  4  2  1  0  0  0  0
  5  1  1  0  0  0  0
  6  2  1  0  0  0  0
  7  8  1  0  0  0  0
  8  1  1  0  0  0  0
  9  4  1  0  0  0  0
 10  6  1  0  0  0  0
 11  3  1  0  0  0  0
 12  5  2  0  0  0  0
 13 10  2  0  0  0  0
 14  9  1  0  0  0  0
 15 21  2  0  0  0  0
 16 13  1  0  0  0  0
 17 11  1  0  0  0  0
 18 14  1  0  0  0  0
 19  9  2  0  0  0  0
 20 10  1  0  0  0  0
 21 26  1  0  0  0  0
 22 25  2  0  0  0  0
 23 13  1  0  0  0  0
 24 14  2  0  0  0  0
 25 17  1  0  0  0  0
 26 17  2  0  0  0  0
 27 19  1  0  0  0  0
 28 20  2  0  0  0  0
 29 27  2  0  0  0  0
 30 28  1  0  0  0  0
  4  7  2  0  0  0  0
  3  6  1  0  0  0  0
 15 22  1  0  0  0  0
 23 30  2  0  0  0  0
 24 29  1  0  0  0  0
M  END
>  <Code> (P7119980108)
P7119980108

>  <Number of H-Donors> (P7119980108)
2

>  <Number of H-Acceptors> (P7119980108)
4

>  <Number of Rotatable bonds> (P7119980108)
4

>  <CLogP> (P7119980108)
3.700000000000000e+000

>  <Number of Rings> (P7119980108)
5

>  <PSA> (P7119980108)
8.210000000000001e+001

$$$$

  -ISIS-  11102212342D

 27 31  0  0  0  0  0  0  0  0999 V2000
   -1.5583    0.5458    0.0000 N   0  0  3  0  0  0  0  0  0  0  0  0
   -1.0708    1.2208    0.0000 C   0  0  0  0  0  0  0  0  0  0  0  0
   -1.5708    1.8958    0.0000 N   0  0  0  0  0  0  0  0  0  0  0  0
   -2.3500    0.7958    0.0000 C   0  0  0  0  0  0  0  0  0  0  0  0
   -1.2958   -0.2417    0.0000 C   0  0  0  0  0  0  0  0  0  0  0  0
   -2.3583    1.6250    0.0000 C   0  0  0  0  0  0  0  0  0  0  0  0
   -1.8458   -0.8542    0.0000 C   0  0  0  0  0  0  0  0  0  0  0  0
   -0.2458    1.2250    0.0000 C   0  0  0  0  0  0  0  0  0  0  0  0
    0.1667    0.5208    0.0000 N   0  0  3  0  0  0  0  0  0  0  0  0
   -1.5833   -1.6292    0.0000 C   0  0  0  0  0  0  0  0  0  0  0  0
    1.0000   -0.9125    0.0000 O   0  0  0  0  0  0  0  0  0  0  0  0
   -2.1250   -2.2500    0.0000 C   0  0  0  0  0  0  0  0  0  0  0  0
   -3.0708    0.3833    0.0000 C   0  0  0  0  0  0  0  0  0  0  0  0
   -2.6500   -0.6875    0.0000 C   0  0  0  0  0  0  0  0  0  0  0  0
   -3.0708    2.0375    0.0000 C   0  0  0  0  0  0  0  0  0  0  0  0
    0.9917    0.5208    0.0000 C   0  0  0  0  0  0  0  0  0  0  0  0
   -0.2458   -0.1917    0.0000 C   0  0  0  0  0  0  0  0  0  0  0  0
   -3.1958   -1.3042    0.0000 C   0  0  0  0  0  0  0  0  0  0  0  0
   -0.7833   -1.7917    0.0000 C   0  0  0  0  0  0  0  0  0  0  0  0
    1.4167   -0.1917    0.0000 C   0  0  0  0  0  0  0  0  0  0  0  0
    0.1667   -0.9125    0.0000 C   0  0  0  0  0  0  0  0  0  0  0  0
   -2.9333   -2.0875    0.0000 C   0  0  0  0  0  0  0  0  0  0  0  0
   -1.8625   -3.0250    0.0000 C   0  0  0  0  0  0  0  0  0  0  0  0
   -3.7833    0.7958    0.0000 C   0  0  0  0  0  0  0  0  0  0  0  0
   -3.7833    1.6250    0.0000 C   0  0  0  0  0  0  0  0  0  0  0  0
   -0.5208   -2.5667    0.0000 C   0  0  0  0  0  0  0  0  0  0  0  0
   -1.0583   -3.1917    0.0000 C   0  0  0  0  0  0  0  0  0  0  0  0
  2  1  1  0  0  0  0
  3  2  2  0  0  0  0
  4  1  1  0  0  0  0
  5  1  1  0  0  0  0
  6  4  1  0  0  0  0
  7  5  1  0  0  0  0
  8  2  1  0  0  0  0
  9  8  1  0  0  0  0
 10  7  1  0  0  0  0
 11 21  1  0  0  0  0
 12 10  1  0  0  0  0
 13  4  2  0  0  0  0
 14  7  2  0  0  0  0
 15  6  2  0  0  0  0
 16  9  1  0  0  0  0
 17  9  1  0  0  0  0
 18 14  1  0  0  0  0
 19 10  2  0  0  0  0
 20 16  1  0  0  0  0
 21 17  1  0  0  0  0
 22 18  2  0  0  0  0
 23 12  2  0  0  0  0
 24 13  1  0  0  0  0
 25 24  2  0  0  0  0
 26 19  1  0  0  0  0
 27 26  2  0  0  0  0
  3  6  1  0  0  0  0
 15 25  1  0  0  0  0
 12 22  1  0  0  0  0
 11 20  1  0  0  0  0
 23 27  1  0  0  0  0
M  END
>  <Code> (P7119911570)
P7119911570

>  <Number of H-Donors> (P7119911570)
0

>  <Number of H-Acceptors> (P7119911570)
3

>  <Number of Rotatable bonds> (P7119911570)
4

>  <CLogP> (P7119911570)
4.000000000000000e+000

>  <Number of Rings> (P7119911570)
5

>  <PSA> (P7119911570)
3.030000000000000e+001

$$$$

  -ISIS-  11102212342D

 23 25  0  0  0  0  0  0  0  0999 V2000
    2.5042   -2.9000    0.0000 C   0  0  0  0  0  0  0  0  0  0  0  0
    2.0167   -2.2292    0.0000 N   0  0  0  0  0  0  0  0  0  0  0  0
    2.0292   -3.5792    0.0000 N   0  0  3  0  0  0  0  0  0  0  0  0
    1.2292   -3.3292    0.0000 C   0  0  0  0  0  0  0  0  0  0  0  0
    1.2292   -2.4917    0.0000 C   0  0  0  0  0  0  0  0  0  0  0  0
    3.3375   -2.8917    0.0000 C   0  0  0  0  0  0  0  0  0  0  0  0
    3.0667   -6.7042    0.0000 C   0  0  0  0  0  0  0  0  0  0  0  0
    2.5167   -7.3167    0.0000 C   0  0  0  0  0  0  0  0  0  0  0  0
    2.2875   -4.3625    0.0000 C   0  0  0  0  0  0  0  0  0  0  0  0
    2.8125   -5.9292    0.0000 O   0  0  0  0  0  0  0  0  0  0  0  0
    3.0917   -4.5292    0.0000 C   0  0  0  0  0  0  0  0  0  0  0  0
    0.5125   -3.7375    0.0000 C   0  0  0  0  0  0  0  0  0  0  0  0
    0.5125   -2.0792    0.0000 C   0  0  0  0  0  0  0  0  0  0  0  0
    3.3292   -1.4667    0.0000 O   0  0  0  0  0  0  0  0  0  0  0  0
    3.7417   -2.1792    0.0000 C   0  0  0  0  0  0  0  0  0  0  0  0
    3.3542   -5.3042    0.0000 C   0  0  0  0  0  0  0  0  0  0  0  0
    1.7125   -7.1542    0.0000 C   0  0  0  0  0  0  0  0  0  0  0  0
    3.8750   -6.8667    0.0000 C   0  0  0  0  0  0  0  0  0  0  0  0
    2.7792   -8.1042    0.0000 C   0  0  0  0  0  0  0  0  0  0  0  0
   -0.2000   -3.3250    0.0000 C   0  0  0  0  0  0  0  0  0  0  0  0
   -0.2000   -2.5000    0.0000 C   0  0  0  0  0  0  0  0  0  0  0  0
    3.5917   -8.2667    0.0000 C   0  0  0  0  0  0  0  0  0  0  0  0
    4.1375   -7.6500    0.0000 C   0  0  0  0  0  0  0  0  0  0  0  0
  2  1  2  0  0  0  0
  3  1  1  0  0  0  0
  4  3  1  0  0  0  0
  5  2  1  0  0  0  0
  6  1  1  0  0  0  0
  7 10  1  0  0  0  0
  8  7  2  0  0  0  0
  9  3  1  0  0  0  0
 10 16  1  0  0  0  0
 11  9  1  0  0  0  0
 12  4  2  0  0  0  0
 13  5  2  0  0  0  0
 14 15  1  0  0  0  0
 15  6  1  0  0  0  0
 16 11  1  0  0  0  0
 17  8  1  0  0  0  0
 18  7  1  0  0  0  0
 19  8  1  0  0  0  0
 20 12  1  0  0  0  0
 21 13  1  0  0  0  0
 22 23  1  0  0  0  0
 23 18  2  0  0  0  0
  5  4  1  0  0  0  0
 21 20  2  0  0  0  0
 19 22  2  0  0  0  0
M  END
>  <Code> (P7119911520)
P7119911520

>  <Number of H-Donors> (P7119911520)
1

>  <Number of H-Acceptors> (P7119911520)
3

>  <Number of Rotatable bonds> (P7119911520)
7

>  <CLogP> (P7119911520)
3.600000000000000e+000

>  <Number of Rings> (P7119911520)
3

>  <PSA> (P7119911520)
4.730000000000000e+001

$$$$

  -ISIS-  11102212342D

 23 25  0  0  0  0  0  0  0  0999 V2000
    2.5042   -2.9000    0.0000 C   0  0  0  0  0  0  0  0  0  0  0  0
    2.0167   -2.2292    0.0000 N   0  0  0  0  0  0  0  0  0  0  0  0
    2.0292   -3.5792    0.0000 N   0  0  3  0  0  0  0  0  0  0  0  0
    1.2292   -3.3292    0.0000 C   0  0  0  0  0  0  0  0  0  0  0  0
    1.2292   -2.4917    0.0000 C   0  0  0  0  0  0  0  0  0  0  0  0
    3.3375   -2.8917    0.0000 C   0  0  0  0  0  0  0  0  0  0  0  0
    2.5167   -7.3167    0.0000 C   0  0  0  0  0  0  0  0  0  0  0  0
    3.0667   -6.7042    0.0000 C   0  0  0  0  0  0  0  0  0  0  0  0
    2.2875   -4.3625    0.0000 C   0  0  0  0  0  0  0  0  0  0  0  0
    1.7125   -7.1542    0.0000 Cl  0  0  0  0  0  0  0  0  0  0  0  0
    2.8125   -5.9292    0.0000 O   0  0  0  0  0  0  0  0  0  0  0  0
    3.0917   -4.5292    0.0000 C   0  0  0  0  0  0  0  0  0  0  0  0
    0.5125   -3.7375    0.0000 C   0  0  0  0  0  0  0  0  0  0  0  0
    0.5125   -2.0792    0.0000 C   0  0  0  0  0  0  0  0  0  0  0  0
    3.3292   -1.4667    0.0000 O   0  0  0  0  0  0  0  0  0  0  0  0
    3.7417   -2.1792    0.0000 C   0  0  0  0  0  0  0  0  0  0  0  0
    3.3542   -5.3042    0.0000 C   0  0  0  0  0  0  0  0  0  0  0  0
    2.7792   -8.1042    0.0000 C   0  0  0  0  0  0  0  0  0  0  0  0
    3.8750   -6.8667    0.0000 C   0  0  0  0  0  0  0  0  0  0  0  0
   -0.2000   -3.3250    0.0000 C   0  0  0  0  0  0  0  0  0  0  0  0
   -0.2000   -2.5000    0.0000 C   0  0  0  0  0  0  0  0  0  0  0  0
    3.5917   -8.2667    0.0000 C   0  0  0  0  0  0  0  0  0  0  0  0
    4.1375   -7.6500    0.0000 C   0  0  0  0  0  0  0  0  0  0  0  0
  2  1  2  0  0  0  0
  3  1  1  0  0  0  0
  4  3  1  0  0  0  0
  5  2  1  0  0  0  0
  6  1  1  0  0  0  0
  7  8  2  0  0  0  0
  8 11  1  0  0  0  0
  9  3  1  0  0  0  0
 10  7  1  0  0  0  0
 11 17  1  0  0  0  0
 12  9  1  0  0  0  0
 13  4  2  0  0  0  0
 14  5  2  0  0  0  0
 15 16  1  0  0  0  0
 16  6  1  0  0  0  0
 17 12  1  0  0  0  0
 18  7  1  0  0  0  0
 19  8  1  0  0  0  0
 20 13  1  0  0  0  0
 21 14  1  0  0  0  0
 22 23  1  0  0  0  0
 23 19  2  0  0  0  0
  4  5  1  0  0  0  0
 20 21  2  0  0  0  0
 22 18  2  0  0  0  0
M  END
>  <Code> (P7119911519)
P7119911519

>  <Number of H-Donors> (P7119911519)
1

>  <Number of H-Acceptors> (P7119911519)
3

>  <Number of Rotatable bonds> (P7119911519)
7

>  <CLogP> (P7119911519)
3.700000000000000e+000

>  <Number of Rings> (P7119911519)
3

>  <PSA> (P7119911519)
4.730000000000000e+001

$$$$

  -ISIS-  11102212342D

 29 33  0  0  0  0  0  0  0  0999 V2000
   -0.3208    1.7083    0.0000 C   0  0  0  0  0  0  0  0  0  0  0  0
   -0.8083    1.0250    0.0000 N   0  0  3  0  0  0  0  0  0  0  0  0
   -0.8083    2.3750    0.0000 N   0  0  0  0  0  0  0  0  0  0  0  0
    0.5042    1.7083    0.0000 C   0  0  3  0  0  0  0  0  0  0  0  0
    1.7792    1.3083    0.0000 N   0  0  3  0  0  0  0  0  0  0  0  0
    1.7792    2.1333    0.0000 C   0  0  0  0  0  0  0  0  0  0  0  0
   -1.5958    1.2833    0.0000 C   0  0  0  0  0  0  0  0  0  0  0  0
   -1.6000    2.1125    0.0000 C   0  0  0  0  0  0  0  0  0  0  0  0
    1.0000    1.0458    0.0000 C   0  0  0  0  0  0  0  0  0  0  0  0
    0.9917    2.3833    0.0000 C   0  0  0  0  0  0  0  0  0  0  0  0
   -0.5458    0.2458    0.0000 C   0  0  0  0  0  0  0  0  0  0  0  0
    2.4417    2.6208    0.0000 O   0  0  0  0  0  0  0  0  0  0  0  0
   -1.0958   -0.3750    0.0000 C   0  0  0  0  0  0  0  0  0  0  0  0
   -1.3833   -1.7667    0.0000 C   0  0  0  0  0  0  0  0  0  0  0  0
   -0.8375   -1.1542    0.0000 C   0  0  0  0  0  0  0  0  0  0  0  0
   -2.1958   -1.6000    0.0000 C   0  0  0  0  0  0  0  0  0  0  0  0
    3.2000    1.1708    0.0000 C   0  0  0  0  0  0  0  0  0  0  0  0
   -2.4583   -0.8167    0.0000 C   0  0  0  0  0  0  0  0  0  0  0  0
    3.8667    0.6875    0.0000 C   0  0  0  0  0  0  0  0  0  0  0  0
    2.4542    0.8250    0.0000 C   0  0  0  0  0  0  0  0  0  0  0  0
   -1.9083   -0.2042    0.0000 C   0  0  0  0  0  0  0  0  0  0  0  0
   -2.3208    0.8625    0.0000 C   0  0  0  0  0  0  0  0  0  0  0  0
   -2.3208    2.5250    0.0000 C   0  0  0  0  0  0  0  0  0  0  0  0
   -1.1208   -2.5500    0.0000 C   0  0  0  0  0  0  0  0  0  0  0  0
   -2.7458   -2.2167    0.0000 C   0  0  0  0  0  0  0  0  0  0  0  0
   -3.0333    1.2833    0.0000 C   0  0  0  0  0  0  0  0  0  0  0  0
   -3.0333    2.1125    0.0000 C   0  0  0  0  0  0  0  0  0  0  0  0
   -1.6708   -3.1667    0.0000 C   0  0  0  0  0  0  0  0  0  0  0  0
   -2.4833   -3.0042    0.0000 C   0  0  0  0  0  0  0  0  0  0  0  0
  2  1  1  0  0  0  0
  3  1  2  0  0  0  0
  4  1  1  0  0  0  0
  5  9  1  0  0  0  0
  6 10  1  0  0  0  0
  7  2  1  0  0  0  0
  8  3  1  0  0  0  0
  9  4  1  0  0  0  0
 10  4  1  0  0  0  0
 11  2  1  0  0  0  0
 12  6  2  0  0  0  0
 13 11  1  0  0  0  0
 14 15  2  0  0  0  0
 15 13  1  0  0  0  0
 16 18  2  0  0  0  0
 17 20  1  0  0  0  0
 18 21  1  0  0  0  0
 19 17  2  0  0  0  0
 20  5  1  0  0  0  0
 21 13  2  0  0  0  0
 22  7  2  0  0  0  0
 23  8  2  0  0  0  0
 24 14  1  0  0  0  0
 25 16  1  0  0  0  0
 26 22  1  0  0  0  0
 27 23  1  0  0  0  0
 28 24  2  0  0  0  0
 29 25  2  0  0  0  0
  8  7  1  0  0  0  0
  5  6  1  0  0  0  0
 27 26  2  0  0  0  0
 14 16  1  0  0  0  0
 28 29  1  0  0  0  0
M  END
>  <Code> (P7119910488)
P7119910488

>  <Number of H-Donors> (P7119910488)
0

>  <Number of H-Acceptors> (P7119910488)
2

>  <Number of Rotatable bonds> (P7119910488)
5

>  <CLogP> (P7119910488)
4.300000000000000e+000

>  <Number of Rings> (P7119910488)
5

>  <PSA> (P7119910488)
3.809999999999999e+001

$$$$

  -ISIS-  11102212342D

 30 33  0  0  0  0  0  0  0  0999 V2000
   -0.3208    1.7083    0.0000 C   0  0  0  0  0  0  0  0  0  0  0  0
   -0.8083    2.3750    0.0000 N   0  0  0  0  0  0  0  0  0  0  0  0
   -0.8083    1.0250    0.0000 N   0  0  3  0  0  0  0  0  0  0  0  0
    0.5042    1.7083    0.0000 C   0  0  3  0  0  0  0  0  0  0  0  0
    1.7792    1.3083    0.0000 N   0  0  3  0  0  0  0  0  0  0  0  0
    1.7792    2.1333    0.0000 C   0  0  0  0  0  0  0  0  0  0  0  0
   -1.5958    1.2833    0.0000 C   0  0  0  0  0  0  0  0  0  0  0  0
   -1.6000    2.1125    0.0000 C   0  0  0  0  0  0  0  0  0  0  0  0
    1.0000    1.0458    0.0000 C   0  0  0  0  0  0  0  0  0  0  0  0
    0.9917    2.3833    0.0000 C   0  0  0  0  0  0  0  0  0  0  0  0
   -0.7000   -2.5125    0.0000 C   0  0  0  0  0  0  0  0  0  0  0  0
    2.4417    2.6208    0.0000 O   0  0  0  0  0  0  0  0  0  0  0  0
   -1.1208   -3.2167    0.0000 C   0  0  0  0  0  0  0  0  0  0  0  0
    0.1250   -2.5125    0.0000 C   0  0  0  0  0  0  0  0  0  0  0  0
    3.2000    1.1708    0.0000 C   0  0  0  0  0  0  0  0  0  0  0  0
   -0.5458    0.2458    0.0000 C   0  0  0  0  0  0  0  0  0  0  0  0
   -0.7083   -3.9375    0.0000 C   0  0  0  0  0  0  0  0  0  0  0  0
    3.8667    0.6875    0.0000 C   0  0  0  0  0  0  0  0  0  0  0  0
    2.4542    0.8250    0.0000 C   0  0  0  0  0  0  0  0  0  0  0  0
    0.5292   -3.2292    0.0000 C   0  0  0  0  0  0  0  0  0  0  0  0
   -1.1083   -1.7917    0.0000 O   0  0  0  0  0  0  0  0  0  0  0  0
    0.1167   -3.9417    0.0000 C   0  0  0  0  0  0  0  0  0  0  0  0
   -1.0958   -0.3750    0.0000 C   0  0  0  0  0  0  0  0  0  0  0  0
   -2.3208    0.8625    0.0000 C   0  0  0  0  0  0  0  0  0  0  0  0
   -2.3208    2.5250    0.0000 C   0  0  0  0  0  0  0  0  0  0  0  0
   -0.6875   -1.0875    0.0000 C   0  0  0  0  0  0  0  0  0  0  0  0
   -1.9458   -3.2167    0.0000 C   0  0  0  0  0  0  0  0  0  0  0  0
    1.3542   -3.2292    0.0000 C   0  0  0  0  0  0  0  0  0  0  0  0
   -3.0333    1.2833    0.0000 C   0  0  0  0  0  0  0  0  0  0  0  0
   -3.0333    2.1125    0.0000 C   0  0  0  0  0  0  0  0  0  0  0  0
  2  1  2  0  0  0  0
  3  1  1  0  0  0  0
  4  1  1  0  0  0  0
  5  9  1  0  0  0  0
  6 10  1  0  0  0  0
  7  3  1  0  0  0  0
  8  2  1  0  0  0  0
  9  4  1  0  0  0  0
 10  4  1  0  0  0  0
 11 21  1  0  0  0  0
 12  6  2  0  0  0  0
 13 11  2  0  0  0  0
 14 11  1  0  0  0  0
 15 19  1  0  0  0  0
 16  3  1  0  0  0  0
 17 13  1  0  0  0  0
 18 15  2  0  0  0  0
 19  5  1  0  0  0  0
 20 14  2  0  0  0  0
 21 26  1  0  0  0  0
 22 20  1  0  0  0  0
 23 16  1  0  0  0  0
 24  7  2  0  0  0  0
 25  8  2  0  0  0  0
 26 23  1  0  0  0  0
 27 13  1  0  0  0  0
 28 20  1  0  0  0  0
 29 24  1  0  0  0  0
 30 25  1  0  0  0  0
  8  7  1  0  0  0  0
  5  6  1  0  0  0  0
 30 29  2  0  0  0  0
 17 22  2  0  0  0  0
M  END
>  <Code> (P7119910473)
P7119910473

>  <Number of H-Donors> (P7119910473)
0

>  <Number of H-Acceptors> (P7119910473)
3

>  <Number of Rotatable bonds> (P7119910473)
8

>  <CLogP> (P7119910473)
4.500000000000000e+000

>  <Number of Rings> (P7119910473)
4

>  <PSA> (P7119910473)
4.740000000000001e+001

$$$$

  -ISIS-  11102212342D

 27 30  0  0  0  0  0  0  0  0999 V2000
   -0.3208    1.7083    0.0000 C   0  0  0  0  0  0  0  0  0  0  0  0
   -0.8083    1.0250    0.0000 N   0  0  3  0  0  0  0  0  0  0  0  0
   -0.8083    2.3750    0.0000 N   0  0  0  0  0  0  0  0  0  0  0  0
    0.5042    1.7083    0.0000 C   0  0  3  0  0  0  0  0  0  0  0  0
    1.7792    1.3083    0.0000 N   0  0  3  0  0  0  0  0  0  0  0  0
    1.7792    2.1333    0.0000 C   0  0  0  0  0  0  0  0  0  0  0  0
   -1.5958    1.2833    0.0000 C   0  0  0  0  0  0  0  0  0  0  0  0
   -1.6000    2.1125    0.0000 C   0  0  0  0  0  0  0  0  0  0  0  0
    1.0000    1.0458    0.0000 C   0  0  0  0  0  0  0  0  0  0  0  0
    0.9917    2.3833    0.0000 C   0  0  0  0  0  0  0  0  0  0  0  0
   -0.5458    0.2458    0.0000 C   0  0  0  0  0  0  0  0  0  0  0  0
   -1.3833   -1.7667    0.0000 C   0  0  0  0  0  0  0  0  0  0  0  0
    2.4417    2.6208    0.0000 O   0  0  0  0  0  0  0  0  0  0  0  0
   -2.1958   -1.6000    0.0000 C   0  0  0  0  0  0  0  0  0  0  0  0
   -1.0958   -0.3750    0.0000 C   0  0  0  0  0  0  0  0  0  0  0  0
   -0.8375   -1.1542    0.0000 C   0  0  0  0  0  0  0  0  0  0  0  0
    3.2000    1.1708    0.0000 C   0  0  0  0  0  0  0  0  0  0  0  0
   -2.4583   -0.8167    0.0000 C   0  0  0  0  0  0  0  0  0  0  0  0
    3.8667    0.6875    0.0000 C   0  0  0  0  0  0  0  0  0  0  0  0
    2.4542    0.8250    0.0000 C   0  0  0  0  0  0  0  0  0  0  0  0
   -1.1208   -2.5500    0.0000 Cl  0  0  0  0  0  0  0  0  0  0  0  0
   -1.9083   -0.2042    0.0000 C   0  0  0  0  0  0  0  0  0  0  0  0
   -2.7458   -2.2167    0.0000 Cl  0  0  0  0  0  0  0  0  0  0  0  0
   -2.3208    0.8625    0.0000 C   0  0  0  0  0  0  0  0  0  0  0  0
   -2.3208    2.5250    0.0000 C   0  0  0  0  0  0  0  0  0  0  0  0
   -3.0333    1.2833    0.0000 C   0  0  0  0  0  0  0  0  0  0  0  0
   -3.0333    2.1125    0.0000 C   0  0  0  0  0  0  0  0  0  0  0  0
  2  1  1  0  0  0  0
  3  1  2  0  0  0  0
  4  1  1  0  0  0  0
  5  9  1  0  0  0  0
  6 10  1  0  0  0  0
  7  2  1  0  0  0  0
  8  3  1  0  0  0  0
  9  4  1  0  0  0  0
 10  4  1  0  0  0  0
 11  2  1  0  0  0  0
 12 16  2  0  0  0  0
 13  6  2  0  0  0  0
 14 18  2  0  0  0  0
 15 11  1  0  0  0  0
 16 15  1  0  0  0  0
 17 20  1  0  0  0  0
 18 22  1  0  0  0  0
 19 17  2  0  0  0  0
 20  5  1  0  0  0  0
 21 12  1  0  0  0  0
 22 15  2  0  0  0  0
 23 14  1  0  0  0  0
 24  7  2  0  0  0  0
 25  8  2  0  0  0  0
 26 24  1  0  0  0  0
 27 25  1  0  0  0  0
  8  7  1  0  0  0  0
  5  6  1  0  0  0  0
 27 26  2  0  0  0  0
 12 14  1  0  0  0  0
M  END
>  <Code> (P7119910433)
P7119910433

>  <Number of H-Donors> (P7119910433)
0

>  <Number of H-Acceptors> (P7119910433)
2

>  <Number of Rotatable bonds> (P7119910433)
5

>  <CLogP> (P7119910433)
4.700000000000000e+000

>  <Number of Rings> (P7119910433)
4

>  <PSA> (P7119910433)
3.809999999999999e+001

$$$$

  -ISIS-  11102212342D

 26 29  0  0  0  0  0  0  0  0999 V2000
   -1.4583    2.1250    0.0000 C   0  0  0  0  0  0  0  0  0  0  0  0
   -1.9500    2.7958    0.0000 N   0  0  0  0  0  0  0  0  0  0  0  0
   -1.9458    1.4458    0.0000 N   0  0  3  0  0  0  0  0  0  0  0  0
   -0.6333    2.1333    0.0000 C   0  0  3  0  0  0  0  0  0  0  0  0
    0.6417    1.7333    0.0000 N   0  0  3  0  0  0  0  0  0  0  0  0
    0.6375    2.5583    0.0000 C   0  0  0  0  0  0  0  0  0  0  0  0
   -2.7375    1.7000    0.0000 C   0  0  0  0  0  0  0  0  0  0  0  0
   -2.7458    2.5333    0.0000 C   0  0  0  0  0  0  0  0  0  0  0  0
   -0.1458    1.4708    0.0000 C   0  0  0  0  0  0  0  0  0  0  0  0
   -0.1500    2.8083    0.0000 C   0  0  0  0  0  0  0  0  0  0  0  0
   -2.2375    0.0458    0.0000 C   0  0  0  0  0  0  0  0  0  0  0  0
   -1.9833   -0.7375    0.0000 C   0  0  0  0  0  0  0  0  0  0  0  0
    1.3125    1.2458    0.0000 C   0  0  0  0  0  0  0  0  0  0  0  0
    1.3000    3.0458    0.0000 O   0  0  0  0  0  0  0  0  0  0  0  0
   -1.6875    0.6625    0.0000 C   0  0  0  0  0  0  0  0  0  0  0  0
    1.2292    0.4250    0.0000 C   0  0  0  0  0  0  0  0  0  0  0  0
    0.9125   -1.1875    0.0000 C   0  0  0  0  0  0  0  0  0  0  0  0
    0.6917   -1.9792    0.0000 F   0  0  0  0  0  0  0  0  0  0  0  0
    0.4500    0.1625    0.0000 C   0  0  0  0  0  0  0  0  0  0  0  0
    1.8417   -0.1167    0.0000 C   0  0  0  0  0  0  0  0  0  0  0  0
    0.2917   -0.6417    0.0000 C   0  0  0  0  0  0  0  0  0  0  0  0
    1.6875   -0.9167    0.0000 C   0  0  0  0  0  0  0  0  0  0  0  0
   -3.4583    1.2833    0.0000 C   0  0  0  0  0  0  0  0  0  0  0  0
   -3.4583    2.9458    0.0000 C   0  0  0  0  0  0  0  0  0  0  0  0
   -4.1750    1.7000    0.0000 C   0  0  0  0  0  0  0  0  0  0  0  0
   -4.1750    2.5333    0.0000 C   0  0  0  0  0  0  0  0  0  0  0  0
  2  1  2  0  0  0  0
  3  1  1  0  0  0  0
  4  1  1  0  0  0  0
  5  9  1  0  0  0  0
  6 10  1  0  0  0  0
  7  3  1  0  0  0  0
  8  2  1  0  0  0  0
  9  4  1  0  0  0  0
 10  4  1  0  0  0  0
 11 15  1  0  0  0  0
 12 11  3  0  0  0  0
 13  5  1  0  0  0  0
 14  6  2  0  0  0  0
 15  3  1  0  0  0  0
 16 13  1  0  0  0  0
 17 22  2  0  0  0  0
 18 17  1  0  0  0  0
 19 16  1  0  0  0  0
 20 16  2  0  0  0  0
 21 19  2  0  0  0  0
 22 20  1  0  0  0  0
 23  7  2  0  0  0  0
 24  8  2  0  0  0  0
 25 23  1  0  0  0  0
 26 24  1  0  0  0  0
  8  7  1  0  0  0  0
  5  6  1  0  0  0  0
 26 25  2  0  0  0  0
 21 17  1  0  0  0  0
M  END
>  <Code> (P7119910233)
P7119910233

>  <Number of H-Donors> (P7119910233)
0

>  <Number of H-Acceptors> (P7119910233)
2

>  <Number of Rotatable bonds> (P7119910233)
4

>  <CLogP> (P7119910233)
4.200000000000000e+000

>  <Number of Rings> (P7119910233)
4

>  <PSA> (P7119910233)
3.809999999999999e+001

$$$$

  -ISIS-  11102212342D

 23 26  0  0  0  0  0  0  0  0999 V2000
   -1.4583    2.1250    0.0000 C   0  0  0  0  0  0  0  0  0  0  0  0
   -1.9500    2.7958    0.0000 N   0  0  0  0  0  0  0  0  0  0  0  0
    0.6417    1.7333    0.0000 N   0  0  3  0  0  0  0  0  0  0  0  0
   -0.6333    2.1333    0.0000 C   0  0  3  0  0  0  0  0  0  0  0  0
   -1.9458    1.4458    0.0000 N   0  0  0  0  0  0  0  0  0  0  0  0
    0.6375    2.5583    0.0000 C   0  0  0  0  0  0  0  0  0  0  0  0
   -0.1458    1.4708    0.0000 C   0  0  0  0  0  0  0  0  0  0  0  0
   -0.1500    2.8083    0.0000 C   0  0  0  0  0  0  0  0  0  0  0  0
   -2.7458    2.5333    0.0000 C   0  0  0  0  0  0  0  0  0  0  0  0
   -2.7375    1.7000    0.0000 C   0  0  0  0  0  0  0  0  0  0  0  0
    1.3125    1.2458    0.0000 C   0  0  0  0  0  0  0  0  0  0  0  0
    1.3000    3.0458    0.0000 O   0  0  0  0  0  0  0  0  0  0  0  0
    1.2292    0.4250    0.0000 C   0  0  0  0  0  0  0  0  0  0  0  0
    0.9125   -1.1875    0.0000 C   0  0  0  0  0  0  0  0  0  0  0  0
    0.6917   -1.9792    0.0000 F   0  0  0  0  0  0  0  0  0  0  0  0
    1.8417   -0.1167    0.0000 C   0  0  0  0  0  0  0  0  0  0  0  0
    0.4500    0.1625    0.0000 C   0  0  0  0  0  0  0  0  0  0  0  0
    1.6875   -0.9167    0.0000 C   0  0  0  0  0  0  0  0  0  0  0  0
    0.2917   -0.6417    0.0000 C   0  0  0  0  0  0  0  0  0  0  0  0
   -3.4583    2.9458    0.0000 C   0  0  0  0  0  0  0  0  0  0  0  0
   -3.4583    1.2833    0.0000 C   0  0  0  0  0  0  0  0  0  0  0  0
   -4.1750    1.7000    0.0000 C   0  0  0  0  0  0  0  0  0  0  0  0
   -4.1750    2.5333    0.0000 C   0  0  0  0  0  0  0  0  0  0  0  0
  2  1  2  0  0  0  0
  3  7  1  0  0  0  0
  4  1  1  0  0  0  0
  5  1  1  0  0  0  0
  6  8  1  0  0  0  0
  7  4  1  0  0  0  0
  8  4  1  0  0  0  0
  9  2  1  0  0  0  0
 10  5  1  0  0  0  0
 11  3  1  0  0  0  0
 12  6  2  0  0  0  0
 13 11  1  0  0  0  0
 14 19  1  0  0  0  0
 15 14  1  0  0  0  0
 16 13  2  0  0  0  0
 17 13  1  0  0  0  0
 18 16  1  0  0  0  0
 19 17  2  0  0  0  0
 20  9  2  0  0  0  0
 21 10  2  0  0  0  0
 22 21  1  0  0  0  0
 23 20  1  0  0  0  0
  9 10  1  0  0  0  0
  3  6  1  0  0  0  0
 23 22  2  0  0  0  0
 14 18  2  0  0  0  0
M  END
>  <Code> (P7119910231)
P7119910231

>  <Number of H-Donors> (P7119910231)
1

>  <Number of H-Acceptors> (P7119910231)
2

>  <Number of Rotatable bonds> (P7119910231)
3

>  <CLogP> (P7119910231)
2.800000000000000e+000

>  <Number of Rings> (P7119910231)
4

>  <PSA> (P7119910231)
4.900000000000000e+001

$$$$

  -ISIS-  11102212342D

 30 33  0  0  0  0  0  0  0  0999 V2000
    0.3292  -15.3917    0.0000 C   0  0  0  0  0  0  0  0  0  0  0  0
   -0.1625  -14.7250    0.0000 N   0  0  0  0  0  0  0  0  0  0  0  0
   -0.1583  -16.0750    0.0000 N   0  0  3  0  0  0  0  0  0  0  0  0
    1.1542  -15.3917    0.0000 C   0  0  3  0  0  0  0  0  0  0  0  0
    2.4292  -15.7917    0.0000 N   0  0  3  0  0  0  0  0  0  0  0  0
    2.4250  -14.9667    0.0000 C   0  0  0  0  0  0  0  0  0  0  0  0
    1.6417  -16.0542    0.0000 C   0  0  0  0  0  0  0  0  0  0  0  0
   -0.9500  -15.8167    0.0000 C   0  0  0  0  0  0  0  0  0  0  0  0
   -0.9583  -14.9875    0.0000 C   0  0  0  0  0  0  0  0  0  0  0  0
    1.6375  -14.7167    0.0000 C   0  0  0  0  0  0  0  0  0  0  0  0
    3.1000  -16.2750    0.0000 C   0  0  3  0  0  0  0  0  0  0  0  0
    0.6167  -18.4167    0.0000 C   0  0  0  0  0  0  0  0  0  0  0  0
    3.0875  -14.4792    0.0000 O   0  0  0  0  0  0  0  0  0  0  0  0
    0.8667  -19.2042    0.0000 C   0  0  0  0  0  0  0  0  0  0  0  0
    1.1542  -17.8042    0.0000 C   0  0  0  0  0  0  0  0  0  0  0  0
    0.1000  -16.8542    0.0000 C   0  0  0  0  0  0  0  0  0  0  0  0
   -0.1958  -18.2542    0.0000 O   0  0  0  0  0  0  0  0  0  0  0  0
   -0.4500  -17.4750    0.0000 C   0  0  0  0  0  0  0  0  0  0  0  0
   -1.6708  -16.2375    0.0000 C   0  0  0  0  0  0  0  0  0  0  0  0
   -1.6708  -14.5750    0.0000 C   0  0  0  0  0  0  0  0  0  0  0  0
    2.2292  -18.7542    0.0000 C   0  0  0  0  0  0  0  0  0  0  0  0
    3.8500  -15.9292    0.0000 C   0  0  0  0  0  0  0  0  0  0  0  0
    3.6792  -16.8542    0.0000 C   0  0  0  0  0  0  0  0  0  0  0  0
    3.0167  -17.0917    0.0000 C   0  0  0  0  0  0  0  0  0  0  0  0
    1.9625  -17.9667    0.0000 C   0  0  0  0  0  0  0  0  0  0  0  0
    1.6792  -19.3667    0.0000 C   0  0  0  0  0  0  0  0  0  0  0  0
    0.3167  -19.8167    0.0000 C   0  0  0  0  0  0  0  0  0  0  0  0
    0.8917  -17.0250    0.0000 C   0  0  0  0  0  0  0  0  0  0  0  0
   -2.3875  -15.8167    0.0000 C   0  0  0  0  0  0  0  0  0  0  0  0
   -2.3875  -14.9875    0.0000 C   0  0  0  0  0  0  0  0  0  0  0  0
  2  1  2  0  0  0  0
  3  1  1  0  0  0  0
  4  1  1  0  0  0  0
  5  7  1  0  0  0  0
  6 10  1  0  0  0  0
  7  4  1  0  0  0  0
  8  3  1  0  0  0  0
  9  2  1  0  0  0  0
 10  4  1  0  0  0  0
 11  5  1  0  0  0  0
 12 17  1  0  0  0  0
 13  6  2  0  0  0  0
 14 12  2  0  0  0  0
 15 12  1  0  0  0  0
 16  3  1  0  0  0  0
 17 18  1  0  0  0  0
 18 16  1  0  0  0  0
 19  8  2  0  0  0  0
 20  9  2  0  0  0  0
 21 25  1  0  0  0  0
 22 11  1  0  0  0  0
 23 11  1  0  0  0  0
 24 11  1  0  0  0  0
 25 15  2  0  0  0  0
 26 14  1  0  0  0  0
 27 14  1  0  0  0  0
 28 15  1  0  0  0  0
 29 19  1  0  0  0  0
 30 20  1  0  0  0  0
  9  8  1  0  0  0  0
  5  6  1  0  0  0  0
 30 29  2  0  0  0  0
 26 21  2  0  0  0  0
M  END
>  <Code> (P7119910111)
P7119910111

>  <Number of H-Donors> (P7119910111)
0

>  <Number of H-Acceptors> (P7119910111)
3

>  <Number of Rotatable bonds> (P7119910111)
6

>  <CLogP> (P7119910111)
4.700000000000000e+000

>  <Number of Rings> (P7119910111)
4

>  <PSA> (P7119910111)
4.740000000000001e+001

$$$$

  -ISIS-  11102212342D

 29 32  0  0  0  0  0  0  0  0999 V2000
    0.3292  -15.3917    0.0000 C   0  0  0  0  0  0  0  0  0  0  0  0
   -0.1625  -14.7250    0.0000 N   0  0  0  0  0  0  0  0  0  0  0  0
   -0.1583  -16.0750    0.0000 N   0  0  3  0  0  0  0  0  0  0  0  0
    1.1542  -15.3917    0.0000 C   0  0  3  0  0  0  0  0  0  0  0  0
    2.4292  -15.7917    0.0000 N   0  0  3  0  0  0  0  0  0  0  0  0
    2.4250  -14.9667    0.0000 C   0  0  0  0  0  0  0  0  0  0  0  0
    1.6417  -16.0542    0.0000 C   0  0  0  0  0  0  0  0  0  0  0  0
   -0.9500  -15.8167    0.0000 C   0  0  0  0  0  0  0  0  0  0  0  0
   -0.9583  -14.9875    0.0000 C   0  0  0  0  0  0  0  0  0  0  0  0
    1.6375  -14.7167    0.0000 C   0  0  0  0  0  0  0  0  0  0  0  0
    3.1000  -16.2750    0.0000 C   0  0  3  0  0  0  0  0  0  0  0  0
    3.0875  -14.4792    0.0000 O   0  0  0  0  0  0  0  0  0  0  0  0
    0.1000  -16.8542    0.0000 C   0  0  0  0  0  0  0  0  0  0  0  0
    2.2292  -18.7542    0.0000 C   0  0  0  0  0  0  0  0  0  0  0  0
    0.6167  -18.4167    0.0000 C   0  0  0  0  0  0  0  0  0  0  0  0
    3.0375  -18.9167    0.0000 Cl  0  0  0  0  0  0  0  0  0  0  0  0
    1.9625  -17.9667    0.0000 C   0  0  0  0  0  0  0  0  0  0  0  0
    1.6792  -19.3667    0.0000 C   0  0  0  0  0  0  0  0  0  0  0  0
    1.1542  -17.8042    0.0000 C   0  0  0  0  0  0  0  0  0  0  0  0
    0.8667  -19.2042    0.0000 C   0  0  0  0  0  0  0  0  0  0  0  0
   -0.1958  -18.2542    0.0000 O   0  0  0  0  0  0  0  0  0  0  0  0
   -0.4500  -17.4750    0.0000 C   0  0  0  0  0  0  0  0  0  0  0  0
   -1.6708  -16.2375    0.0000 C   0  0  0  0  0  0  0  0  0  0  0  0
   -1.6708  -14.5750    0.0000 C   0  0  0  0  0  0  0  0  0  0  0  0
    3.8500  -15.9292    0.0000 C   0  0  0  0  0  0  0  0  0  0  0  0
    3.6792  -16.8542    0.0000 C   0  0  0  0  0  0  0  0  0  0  0  0
    3.0167  -17.0917    0.0000 C   0  0  0  0  0  0  0  0  0  0  0  0
   -2.3875  -15.8167    0.0000 C   0  0  0  0  0  0  0  0  0  0  0  0
   -2.3875  -14.9875    0.0000 C   0  0  0  0  0  0  0  0  0  0  0  0
  2  1  2  0  0  0  0
  3  1  1  0  0  0  0
  4  1  1  0  0  0  0
  5  7  1  0  0  0  0
  6 10  1  0  0  0  0
  7  4  1  0  0  0  0
  8  3  1  0  0  0  0
  9  2  1  0  0  0  0
 10  4  1  0  0  0  0
 11  5  1  0  0  0  0
 12  6  2  0  0  0  0
 13  3  1  0  0  0  0
 14 18  2  0  0  0  0
 15 21  1  0  0  0  0
 16 14  1  0  0  0  0
 17 19  2  0  0  0  0
 18 20  1  0  0  0  0
 19 15  1  0  0  0  0
 20 15  2  0  0  0  0
 21 22  1  0  0  0  0
 22 13  1  0  0  0  0
 23  8  2  0  0  0  0
 24  9  2  0  0  0  0
 25 11  1  0  0  0  0
 26 11  1  0  0  0  0
 27 11  1  0  0  0  0
 28 23  1  0  0  0  0
 29 24  1  0  0  0  0
  9  8  1  0  0  0  0
  5  6  1  0  0  0  0
 29 28  2  0  0  0  0
 17 14  1  0  0  0  0
M  END
>  <Code> (P7119910107)
P7119910107

>  <Number of H-Donors> (P7119910107)
0

>  <Number of H-Acceptors> (P7119910107)
3

>  <Number of Rotatable bonds> (P7119910107)
6

>  <CLogP> (P7119910107)
4.400000000000000e+000

>  <Number of Rings> (P7119910107)
4

>  <PSA> (P7119910107)
4.740000000000001e+001

$$$$

  -ISIS-  11102212342D

 36 40  0  0  0  0  0  0  0  0999 V2000
    5.8417   -4.2750    0.0000 N   0  0  3  0  0  0  0  0  0  0  0  0
    6.3250   -3.6125    0.0000 C   0  0  0  0  0  0  0  0  0  0  0  0
    5.8417   -2.9417    0.0000 C   0  0  0  0  0  0  0  0  0  0  0  0
    5.0542   -4.0167    0.0000 C   0  0  0  0  0  0  0  0  0  0  0  0
    5.0542   -3.1917    0.0000 C   0  0  0  0  0  0  0  0  0  0  0  0
    4.3417   -4.4292    0.0000 N   0  0  0  0  0  0  0  0  0  0  0  0
    4.3417   -2.7792    0.0000 N   0  0  0  0  0  0  0  0  0  0  0  0
    6.0917   -2.1542    0.0000 C   0  0  0  0  0  0  0  0  0  0  0  0
    6.0917   -5.0625    0.0000 C   0  0  0  0  0  0  0  0  0  0  0  0
    3.6292   -4.0167    0.0000 C   0  0  0  0  0  0  0  0  0  0  0  0
    3.6292   -3.1917    0.0000 C   0  0  0  0  0  0  0  0  0  0  0  0
    7.1500   -3.6167    0.0000 N   0  0  0  0  0  0  0  0  0  0  0  0
    5.5417   -1.5417    0.0000 O   0  0  0  0  0  0  0  0  0  0  0  0
    6.9000   -1.9792    0.0000 N   0  0  0  0  0  0  0  0  0  0  0  0
    6.8917   -5.2375    0.0000 C   0  0  0  0  0  0  0  0  0  0  0  0
    7.6500   -7.5917    0.0000 C   0  0  0  0  0  0  0  0  0  0  0  0
    7.1417   -6.0167    0.0000 C   0  0  0  0  0  0  0  0  0  0  0  0
    8.7167    1.3458    0.0000 C   0  0  0  0  0  0  0  0  0  0  0  0
    8.2125   -0.2292    0.0000 C   0  0  0  0  0  0  0  0  0  0  0  0
    7.8625   -8.3875    0.0000 F   0  0  0  0  0  0  0  0  0  0  0  0
    8.2042   -6.9750    0.0000 C   0  0  0  0  0  0  0  0  0  0  0  0
    6.8417   -7.4167    0.0000 C   0  0  0  0  0  0  0  0  0  0  0  0
    7.9542   -6.1917    0.0000 C   0  0  0  0  0  0  0  0  0  0  0  0
    6.5917   -6.6292    0.0000 C   0  0  0  0  0  0  0  0  0  0  0  0
    9.2750    0.7333    0.0000 C   0  0  0  0  0  0  0  0  0  0  0  0
    7.9042    1.1708    0.0000 C   0  0  0  0  0  0  0  0  0  0  0  0
    7.6542    0.3833    0.0000 C   0  0  0  0  0  0  0  0  0  0  0  0
    9.0167   -0.0542    0.0000 C   0  0  0  0  0  0  0  0  0  0  0  0
    7.1542   -1.1917    0.0000 C   0  0  0  0  0  0  0  0  0  0  0  0
    8.9667    2.1333    0.0000 O   0  0  0  0  0  0  0  0  0  0  0  0
    2.9167   -4.4292    0.0000 C   0  0  0  0  0  0  0  0  0  0  0  0
    2.9167   -2.7792    0.0000 C   0  0  0  0  0  0  0  0  0  0  0  0
    7.9542   -1.0167    0.0000 C   0  0  0  0  0  0  0  0  0  0  0  0
    8.4125    2.7458    0.0000 C   0  0  0  0  0  0  0  0  0  0  0  0
    2.1917   -3.2000    0.0000 C   0  0  0  0  0  0  0  0  0  0  0  0
    2.1917   -4.0167    0.0000 C   0  0  0  0  0  0  0  0  0  0  0  0
  2  1  1  0  0  0  0
  3  2  2  0  0  0  0
  4  1  1  0  0  0  0
  5  4  1  0  0  0  0
  6  4  2  0  0  0  0
  7  5  2  0  0  0  0
  8  3  1  0  0  0  0
  9  1  1  0  0  0  0
 10  6  1  0  0  0  0
 11 10  1  0  0  0  0
 12  2  1  0  0  0  0
 13  8  2  0  0  0  0
 14  8  1  0  0  0  0
 15  9  1  0  0  0  0
 16 22  2  0  0  0  0
 17 15  1  0  0  0  0
 18 25  2  0  0  0  0
 19 33  1  0  0  0  0
 20 16  1  0  0  0  0
 21 23  2  0  0  0  0
 22 24  1  0  0  0  0
 23 17  1  0  0  0  0
 24 17  2  0  0  0  0
 25 28  1  0  0  0  0
 26 27  2  0  0  0  0
 27 19  1  0  0  0  0
 28 19  2  0  0  0  0
 29 14  1  0  0  0  0
 30 18  1  0  0  0  0
 31 10  2  0  0  0  0
 32 11  2  0  0  0  0
 33 29  1  0  0  0  0
 34 30  1  0  0  0  0
 35 36  2  0  0  0  0
 36 31  1  0  0  0  0
  5  3  1  0  0  0  0
 11  7  1  0  0  0  0
 16 21  1  0  0  0  0
 35 32  1  0  0  0  0
 18 26  1  0  0  0  0
M  END
>  <Code> (P7119891259)
P7119891259

>  <Number of H-Donors> (P7119891259)
2

>  <Number of H-Acceptors> (P7119891259)
5

>  <Number of Rotatable bonds> (P7119891259)
8

>  <CLogP> (P7119891259)
5.000000000000000e+000

>  <Number of Rings> (P7119891259)
5

>  <PSA> (P7119891259)
9.510000000000002e+001

$$$$

  -ISIS-  11102212342D

 31 33  0  0  0  0  0  0  0  0999 V2000
    7.1292   -4.3292    0.0000 S   0  0  3  0  0  0  0  0  0  0  0  0
    3.8292   -2.9167    0.0000 S   0  0  3  0  0  0  0  0  0  0  0  0
    4.6542   -2.9167    0.0000 N   0  0  3  0  0  0  0  0  0  0  0  0
    7.9542   -4.3292    0.0000 N   0  0  0  0  0  0  0  0  0  0  0  0
    6.3042   -4.3292    0.0000 C   0  0  0  0  0  0  0  0  0  0  0  0
    5.0667   -3.6292    0.0000 C   0  0  0  0  0  0  0  0  0  0  0  0
    5.8875   -3.6250    0.0000 C   0  0  0  0  0  0  0  0  0  0  0  0
    8.3667   -5.0417    0.0000 C   0  0  0  0  0  0  0  0  0  0  0  0
    4.6542   -4.3417    0.0000 C   0  0  0  0  0  0  0  0  0  0  0  0
    5.8917   -5.0542    0.0000 C   0  0  0  0  0  0  0  0  0  0  0  0
    4.2417   -2.2042    0.0000 O   0  0  0  0  0  0  0  0  0  0  0  0
    4.2417   -3.6375    0.0000 O   0  0  0  0  0  0  0  0  0  0  0  0
    5.0667   -5.0542    0.0000 C   0  0  0  0  0  0  0  0  0  0  0  0
    7.5500   -5.0375    0.0000 O   0  0  0  0  0  0  0  0  0  0  0  0
    7.5375   -3.6042    0.0000 O   0  0  0  0  0  0  0  0  0  0  0  0
    3.0042   -2.9167    0.0000 C   0  0  0  0  0  0  0  0  0  0  0  0
    7.9542   -5.7542    0.0000 C   0  0  0  0  0  0  0  0  0  0  0  0
    9.1917   -5.0375    0.0000 C   0  0  0  0  0  0  0  0  0  0  0  0
    5.0625   -2.2042    0.0000 C   0  0  0  0  0  0  0  0  0  0  0  0
    3.8292   -4.3500    0.0000 C   0  0  0  0  0  0  0  0  0  0  0  0
    6.3125   -5.7667    0.0000 C   0  0  0  0  0  0  0  0  0  0  0  0
    9.1917   -6.4667    0.0000 C   0  0  0  0  0  0  0  0  0  0  0  0
    8.3667   -6.4667    0.0000 C   0  0  0  0  0  0  0  0  0  0  0  0
    9.6042   -5.7417    0.0000 C   0  0  0  0  0  0  0  0  0  0  0  0
    2.5917   -2.2042    0.0000 C   0  0  0  0  0  0  0  0  0  0  0  0
    2.5917   -3.6375    0.0000 C   0  0  0  0  0  0  0  0  0  0  0  0
    9.6000   -4.3167    0.0000 C   0  0  0  0  0  0  0  0  0  0  0  0
    7.1292   -5.7542    0.0000 C   0  0  0  0  0  0  0  0  0  0  0  0
    1.7792   -2.2042    0.0000 C   0  0  0  0  0  0  0  0  0  0  0  0
    1.7667   -3.6292    0.0000 C   0  0  0  0  0  0  0  0  0  0  0  0
    1.3625   -2.9167    0.0000 C   0  0  0  0  0  0  0  0  0  0  0  0
  2  3  1  0  0  0  0
  3  6  1  0  0  0  0
  4  1  1  0  0  0  0
  5  1  1  0  0  0  0
  6  7  1  0  0  0  0
  7  5  2  0  0  0  0
  8  4  1  0  0  0  0
  9 13  1  0  0  0  0
 10  5  1  0  0  0  0
 11  2  2  0  0  0  0
 12  2  2  0  0  0  0
 13 10  2  0  0  0  0
 14  1  2  0  0  0  0
 15  1  2  0  0  0  0
 16  2  1  0  0  0  0
 17  8  2  0  0  0  0
 18  8  1  0  0  0  0
 19  3  1  0  0  0  0
 20  9  1  0  0  0  0
 21 10  1  0  0  0  0
 22 24  1  0  0  0  0
 23 17  1  0  0  0  0
 24 18  2  0  0  0  0
 25 16  2  0  0  0  0
 26 16  1  0  0  0  0
 27 18  1  0  0  0  0
 28 17  1  0  0  0  0
 29 25  1  0  0  0  0
 30 26  2  0  0  0  0
 31 30  1  0  0  0  0
  9  6  2  0  0  0  0
 22 23  2  0  0  0  0
 31 29  2  0  0  0  0
M  END
>  <Code> (P7119880874)
P7119880874

>  <Number of H-Donors> (P7119880874)
1

>  <Number of H-Acceptors> (P7119880874)
4

>  <Number of Rotatable bonds> (P7119880874)
6

>  <CLogP> (P7119880874)
5.000000000000000e+000

>  <Number of Rings> (P7119880874)
3

>  <PSA> (P7119880874)
1.003000000000000e+002

$$$$

  -ISIS-  11102212342D

 25 27  0  0  0  0  0  0  0  0999 V2000
   -2.5875   -0.0042    0.0000 S   0  0  3  0  0  0  0  0  0  0  0  0
    2.6292   -0.0042    0.0000 S   0  0  3  0  0  0  0  0  0  0  0  0
   -0.5833   -0.2625    0.0000 C   0  0  0  0  0  0  0  0  0  0  0  0
    0.6167   -0.2625    0.0000 C   0  0  0  0  0  0  0  0  0  0  0  0
    0.0417   -0.7000    0.0000 C   0  0  0  0  0  0  0  0  0  0  0  0
    0.3917    0.4625    0.0000 C   0  0  0  0  0  0  0  0  0  0  0  0
   -0.3500    0.4625    0.0000 C   0  0  0  0  0  0  0  0  0  0  0  0
    1.8625    0.1583    0.0000 C   0  0  0  0  0  0  0  0  0  0  0  0
   -1.8208    0.1583    0.0000 C   0  0  0  0  0  0  0  0  0  0  0  0
    1.3667   -0.4167    0.0000 C   0  0  0  0  0  0  0  0  0  0  0  0
   -1.3333   -0.4167    0.0000 C   0  0  0  0  0  0  0  0  0  0  0  0
   -0.8708    1.0125    0.0000 C   0  0  0  0  0  0  0  0  0  0  0  0
    0.9125    1.0125    0.0000 C   0  0  0  0  0  0  0  0  0  0  0  0
    0.0625   -1.4542    0.0000 N   0  0  0  0  0  0  0  0  0  0  0  0
   -2.4333   -0.7625    0.0000 O   0  0  0  0  0  0  0  0  0  0  0  0
   -2.7375    0.7583    0.0000 O   0  0  0  0  0  0  0  0  0  0  0  0
    2.7792    0.7583    0.0000 O   0  0  0  0  0  0  0  0  0  0  0  0
    2.4667   -0.7625    0.0000 O   0  0  0  0  0  0  0  0  0  0  0  0
   -3.3500   -0.1542    0.0000 N   0  0  0  0  0  0  0  0  0  0  0  0
    3.3917   -0.1542    0.0000 N   0  0  0  0  0  0  0  0  0  0  0  0
   -1.5875    0.8625    0.0000 C   0  0  0  0  0  0  0  0  0  0  0  0
    1.6292    0.8625    0.0000 C   0  0  0  0  0  0  0  0  0  0  0  0
   -0.5833   -1.8375    0.0000 O   0  0  0  0  0  0  0  0  0  0  0  0
   -3.8500    0.4000    0.0000 C   0  0  0  0  0  0  0  0  0  0  0  0
    3.8792    0.4000    0.0000 C   0  0  0  0  0  0  0  0  0  0  0  0
  2  8  1  0  0  0  0
  3 11  2  0  0  0  0
  4  5  1  0  0  0  0
  5  3  1  0  0  0  0
  6  7  1  0  0  0  0
  7 12  2  0  0  0  0
  8 10  1  0  0  0  0
  9  1  1  0  0  0  0
 10  4  2  0  0  0  0
 11  9  1  0  0  0  0
 12 21  1  0  0  0  0
 13  6  2  0  0  0  0
 14  5  2  0  0  0  0
 15  1  2  0  0  0  0
 16  1  2  0  0  0  0
 17  2  2  0  0  0  0
 18  2  2  0  0  0  0
 19  1  1  0  0  0  0
 20  2  1  0  0  0  0
 21  9  2  0  0  0  0
 22 13  1  0  0  0  0
 23 14  1  0  0  0  0
 24 19  1  0  0  0  0
 25 20  1  0  0  0  0
  3  7  1  0  0  0  0
  6  4  1  0  0  0  0
 22  8  2  0  0  0  0
M  END
>  <Code> (P7119880824)
P7119880824

>  <Number of H-Donors> (P7119880824)
3

>  <Number of H-Acceptors> (P7119880824)
6

>  <Number of Rotatable bonds> (P7119880824)
4

>  <CLogP> (P7119880824)
8.000000000000000e-001

>  <Number of Rings> (P7119880824)
3

>  <PSA> (P7119880824)
1.417000000000000e+002

$$$$

  -ISIS-  11102212342D

 31 33  0  0  0  0  0  0  0  0999 V2000
   -2.0000   -0.0917    0.0000 S   0  0  3  0  0  0  0  0  0  0  0  0
    2.0292   -0.0917    0.0000 S   0  0  3  0  0  0  0  0  0  0  0  0
   -0.4500   -0.2917    0.0000 C   0  0  0  0  0  0  0  0  0  0  0  0
    0.4792   -0.2917    0.0000 C   0  0  0  0  0  0  0  0  0  0  0  0
    0.0292   -0.6250    0.0000 C   0  0  0  0  0  0  0  0  0  0  0  0
    0.3000    0.2625    0.0000 C   0  0  0  0  0  0  0  0  0  0  0  0
   -0.2708    0.2625    0.0000 C   0  0  0  0  0  0  0  0  0  0  0  0
    1.4417    0.0250    0.0000 C   0  0  0  0  0  0  0  0  0  0  0  0
   -1.4083    0.0250    0.0000 C   0  0  0  0  0  0  0  0  0  0  0  0
    1.0625   -0.4125    0.0000 C   0  0  0  0  0  0  0  0  0  0  0  0
   -1.0333   -0.4125    0.0000 C   0  0  0  0  0  0  0  0  0  0  0  0
   -0.6708    0.6958    0.0000 C   0  0  0  0  0  0  0  0  0  0  0  0
    0.7000    0.6958    0.0000 C   0  0  0  0  0  0  0  0  0  0  0  0
    0.0500   -1.2125    0.0000 N   0  0  0  0  0  0  0  0  0  0  0  0
   -1.8833   -0.6875    0.0000 O   0  0  0  0  0  0  0  0  0  0  0  0
   -2.1208    0.4958    0.0000 O   0  0  0  0  0  0  0  0  0  0  0  0
    2.1417    0.4958    0.0000 O   0  0  0  0  0  0  0  0  0  0  0  0
    1.9125   -0.6875    0.0000 O   0  0  0  0  0  0  0  0  0  0  0  0
   -2.5875   -0.2125    0.0000 N   0  0  0  0  0  0  0  0  0  0  0  0
    2.6167   -0.2125    0.0000 N   0  0  0  0  0  0  0  0  0  0  0  0
   -1.2333    0.5750    0.0000 C   0  0  0  0  0  0  0  0  0  0  0  0
    1.2625    0.5750    0.0000 C   0  0  0  0  0  0  0  0  0  0  0  0
   -0.4500   -1.5042    0.0000 O   0  0  0  0  0  0  0  0  0  0  0  0
   -2.9833    0.2250    0.0000 C   0  0  0  0  0  0  0  0  0  0  0  0
    3.0000    0.2250    0.0000 C   0  0  0  0  0  0  0  0  0  0  0  0
   -3.5583    0.1083    0.0000 C   0  0  0  0  0  0  0  0  0  0  0  0
    3.5625    0.1125    0.0000 C   0  0  0  0  0  0  0  0  0  0  0  0
   -3.9333    0.5458    0.0000 C   0  0  0  0  0  0  0  0  0  0  0  0
    3.9292    0.5750    0.0000 C   0  0  0  0  0  0  0  0  0  0  0  0
   -4.4875    0.4375    0.0000 C   0  0  0  0  0  0  0  0  0  0  0  0
    4.4917    0.4875    0.0000 C   0  0  0  0  0  0  0  0  0  0  0  0
  2  8  1  0  0  0  0
  3 11  2  0  0  0  0
  4  5  1  0  0  0  0
  5  3  1  0  0  0  0
  6  7  1  0  0  0  0
  7 12  2  0  0  0  0
  8 10  1  0  0  0  0
  9  1  1  0  0  0  0
 10  4  2  0  0  0  0
 11  9  1  0  0  0  0
 12 21  1  0  0  0  0
 13  6  2  0  0  0  0
 14  5  2  0  0  0  0
 15  1  2  0  0  0  0
 16  1  2  0  0  0  0
 17  2  2  0  0  0  0
 18  2  2  0  0  0  0
 19  1  1  0  0  0  0
 20  2  1  0  0  0  0
 21  9  2  0  0  0  0
 22 13  1  0  0  0  0
 23 14  1  0  0  0  0
 24 19  1  0  0  0  0
 25 20  1  0  0  0  0
 26 24  1  0  0  0  0
 27 25  1  0  0  0  0
 28 26  1  0  0  0  0
 29 27  1  0  0  0  0
 30 28  1  0  0  0  0
 31 29  1  0  0  0  0
  3  7  1  0  0  0  0
  6  4  1  0  0  0  0
 22  8  2  0  0  0  0
M  END
>  <Code> (P7119880822)
P7119880822

>  <Number of H-Donors> (P7119880822)
3

>  <Number of H-Acceptors> (P7119880822)
6

>  <Number of Rotatable bonds> (P7119880822)
10

>  <CLogP> (P7119880822)
3.500000000000000e+000

>  <Number of Rings> (P7119880822)
3

>  <PSA> (P7119880822)
1.417000000000000e+002

$$$$

  -ISIS-  11102212342D

 26 28  0  0  0  0  0  0  0  0999 V2000
    1.3750   -2.8000    0.0000 C   0  0  3  0  0  0  0  0  0  0  0  0
    3.5167   -1.5542    0.0000 C   0  0  0  0  0  0  0  0  0  0  0  0
    4.2292   -1.1417    0.0000 C   0  0  0  0  0  0  0  0  0  0  0  0
    3.5167   -2.3792    0.0000 C   0  0  0  0  0  0  0  0  0  0  0  0
    2.0917   -2.3875    0.0000 C   0  0  0  0  0  0  0  0  0  0  0  0
    4.2250   -0.3167    0.0000 N   0  0  0  0  0  0  0  0  0  0  0  0
    2.8042   -2.8000    0.0000 C   0  0  0  0  0  0  0  0  0  0  0  0
    4.9292    0.1083    0.0000 C   0  0  0  0  0  0  0  0  0  0  0  0
    2.8042   -1.1417    0.0000 C   0  0  0  0  0  0  0  0  0  0  0  0
    4.2375   -2.7917    0.0000 N   0  0  0  0  0  0  0  0  0  0  0  0
    2.0917   -1.5625    0.0000 C   0  0  0  0  0  0  0  0  0  0  0  0
    5.6375    1.3458    0.0000 O   0  0  0  0  0  0  0  0  0  0  0  0
    5.6292    2.1708    0.0000 C   0  0  0  0  0  0  0  0  0  0  0  0
    5.6500   -0.3042    0.0000 O   0  0  0  0  0  0  0  0  0  0  0  0
    1.3750   -3.6250    0.0000 F   0  0  0  0  0  0  0  0  0  0  0  0
    0.7875   -3.3792    0.0000 F   0  0  0  0  0  0  0  0  0  0  0  0
    0.6625   -2.3875    0.0000 F   0  0  0  0  0  0  0  0  0  0  0  0
    4.9167    2.5833    0.0000 C   0  0  0  0  0  0  0  0  0  0  0  0
    4.9250    0.9333    0.0000 C   0  0  0  0  0  0  0  0  0  0  0  0
    4.9417   -1.5500    0.0000 C   0  0  0  0  0  0  0  0  0  0  0  0
    4.9500   -2.3792    0.0000 C   0  0  0  0  0  0  0  0  0  0  0  0
    6.3417    2.5958    0.0000 C   0  0  0  0  0  0  0  0  0  0  0  0
    4.2042    2.1583    0.0000 C   0  0  0  0  0  0  0  0  0  0  0  0
    4.9042    3.4000    0.0000 C   0  0  0  0  0  0  0  0  0  0  0  0
    5.6167    3.8333    0.0000 C   0  0  0  0  0  0  0  0  0  0  0  0
    6.3417    3.4208    0.0000 C   0  0  0  0  0  0  0  0  0  0  0  0
  2  9  2  0  0  0  0
  3  2  1  0  0  0  0
  4  7  2  0  0  0  0
  5  1  1  0  0  0  0
  6  3  1  0  0  0  0
  7  5  1  0  0  0  0
  8  6  1  0  0  0  0
  9 11  1  0  0  0  0
 10  4  1  0  0  0  0
 11  5  2  0  0  0  0
 12 19  1  0  0  0  0
 13 12  1  0  0  0  0
 14  8  2  0  0  0  0
 15  1  1  0  0  0  0
 16  1  1  0  0  0  0
 17  1  1  0  0  0  0
 18 13  1  0  0  0  0
 19  8  1  0  0  0  0
 20  3  2  0  0  0  0
 21 10  2  0  0  0  0
 22 13  2  0  0  0  0
 23 18  1  0  0  0  0
 24 18  2  0  0  0  0
 25 26  2  0  0  0  0
 26 22  1  0  0  0  0
  4  2  1  0  0  0  0
 21 20  1  0  0  0  0
 24 25  1  0  0  0  0
M  END
>  <Code> (P7119870074)
P7119870074

>  <Number of H-Donors> (P7119870074)
1

>  <Number of H-Acceptors> (P7119870074)
3

>  <Number of Rotatable bonds> (P7119870074)
5

>  <CLogP> (P7119870074)
4.100000000000000e+000

>  <Number of Rings> (P7119870074)
3

>  <PSA> (P7119870074)
5.119999999999999e+001

$$$$

  -ISIS-  11102212342D

 24 26  0  0  0  0  0  0  0  0999 V2000
    4.4875    1.5708    0.0000 N   0  0  0  0  0  0  0  0  0  0  0  0
    5.1750    1.8750    0.0000 N   0  0  3  0  0  0  0  0  0  0  0  0
    4.3625    2.7833    0.0000 N   0  0  0  0  0  0  0  0  0  0  0  0
    3.9875    2.1333    0.0000 C   0  0  0  0  0  0  0  0  0  0  0  0
    5.0917    2.6208    0.0000 N   0  0  0  0  0  0  0  0  0  0  0  0
    5.8250    1.5000    0.0000 C   0  0  0  0  0  0  0  0  0  0  0  0
    6.4750    1.8750    0.0000 C   0  0  0  0  0  0  0  0  0  0  0  0
    7.7667    1.8750    0.0000 C   0  0  0  0  0  0  0  0  0  0  0  0
    7.1250    1.5000    0.0000 N   0  0  0  0  0  0  0  0  0  0  0  0
    3.2417    2.0500    0.0000 C   0  0  0  0  0  0  0  0  0  0  0  0
    8.4167    1.5000    0.0000 C   0  0  0  0  0  0  0  0  0  0  0  0
    7.7667    2.6250    0.0000 C   0  0  0  0  0  0  0  0  0  0  0  0
    6.4750    2.6250    0.0000 O   0  0  0  0  0  0  0  0  0  0  0  0
    2.8000    2.6583    0.0000 C   0  0  0  0  0  0  0  0  0  0  0  0
    2.9375    1.3708    0.0000 C   0  0  0  0  0  0  0  0  0  0  0  0
    9.0667    1.8750    0.0000 C   0  0  0  0  0  0  0  0  0  0  0  0
    8.4167    3.0000    0.0000 C   0  0  0  0  0  0  0  0  0  0  0  0
    1.7500    1.8958    0.0000 C   0  0  0  0  0  0  0  0  0  0  0  0
    2.0542    2.5833    0.0000 C   0  0  0  0  0  0  0  0  0  0  0  0
    2.1917    1.2875    0.0000 C   0  0  0  0  0  0  0  0  0  0  0  0
    9.0667    2.6250    0.0000 C   0  0  0  0  0  0  0  0  0  0  0  0
    1.0042    1.8208    0.0000 Cl  0  0  0  0  0  0  0  0  0  0  0  0
    8.4167    0.7500    0.0000 C   0  0  0  0  0  0  0  0  0  0  0  0
    8.4167    3.7500    0.0000 C   0  0  0  0  0  0  0  0  0  0  0  0
  2  1  1  0  0  0  0
  3  4  1  0  0  0  0
  4  1  2  0  0  0  0
  5  2  1  0  0  0  0
  6  2  1  0  0  0  0
  7  6  1  0  0  0  0
  8  9  1  0  0  0  0
  9  7  1  0  0  0  0
 10  4  1  0  0  0  0
 11  8  1  0  0  0  0
 12  8  2  0  0  0  0
 13  7  2  0  0  0  0
 14 10  2  0  0  0  0
 15 10  1  0  0  0  0
 16 11  2  0  0  0  0
 17 12  1  0  0  0  0
 18 20  1  0  0  0  0
 19 14  1  0  0  0  0
 20 15  2  0  0  0  0
 21 17  2  0  0  0  0
 22 18  1  0  0  0  0
 23 11  1  0  0  0  0
 24 17  1  0  0  0  0
  3  5  2  0  0  0  0
 18 19  2  0  0  0  0
 16 21  1  0  0  0  0
M  END
>  <Code> (P7119832854)
P7119832854

>  <Number of H-Donors> (P7119832854)
1

>  <Number of H-Acceptors> (P7119832854)
4

>  <Number of Rotatable bonds> (P7119832854)
4

>  <CLogP> (P7119832854)
3.800000000000000e+000

>  <Number of Rings> (P7119832854)
3

>  <PSA> (P7119832854)
7.270000000000000e+001

$$$$

  -ISIS-  11102212342D

 27 31  0  0  0  0  0  0  0  0999 V2000
    3.6042   -3.0125    0.0000 C   0  0  0  0  0  0  0  0  0  0  0  0
    5.0292   -0.5292    0.0000 N   0  0  3  0  0  0  0  0  0  0  0  0
    5.0292   -1.3542    0.0000 C   0  0  0  0  0  0  0  0  0  0  0  0
    3.4375   -3.8167    0.0000 C   0  0  0  0  0  0  0  0  0  0  0  0
    4.3167   -2.6000    0.0000 C   0  0  0  0  0  0  0  0  0  0  0  0
    4.3167   -1.7667    0.0000 C   0  0  0  0  0  0  0  0  0  0  0  0
    2.6167   -3.9042    0.0000 O   0  0  0  0  0  0  0  0  0  0  0  0
    2.2792   -3.1542    0.0000 N   0  0  0  0  0  0  0  0  0  0  0  0
    2.8917   -2.6042    0.0000 C   0  0  0  0  0  0  0  0  0  0  0  0
    4.3125   -0.1292    0.0000 C   0  0  0  0  0  0  0  0  0  0  0  0
    3.6042   -1.3542    0.0000 C   0  0  0  0  0  0  0  0  0  0  0  0
    2.8917   -1.7750    0.0000 C   0  0  0  0  0  0  0  0  0  0  0  0
    5.7500   -1.7625    0.0000 O   0  0  0  0  0  0  0  0  0  0  0  0
    3.9917   -4.4292    0.0000 C   0  0  0  0  0  0  0  0  0  0  0  0
    4.3125    0.7000    0.0000 C   0  0  0  0  0  0  0  0  0  0  0  0
    5.7417   -0.1167    0.0000 C   0  0  0  0  0  0  0  0  0  0  0  0
    3.6000   -0.5375    0.0000 C   0  0  0  0  0  0  0  0  0  0  0  0
    5.7417    0.7000    0.0000 C   0  0  0  0  0  0  0  0  0  0  0  0
    5.0250    1.1125    0.0000 C   0  0  0  0  0  0  0  0  0  0  0  0
    3.6000    1.1125    0.0000 C   0  0  0  0  0  0  0  0  0  0  0  0
    3.7292   -5.2125    0.0000 C   0  0  0  0  0  0  0  0  0  0  0  0
    4.7917   -4.2500    0.0000 C   0  0  0  0  0  0  0  0  0  0  0  0
    2.8875   -0.1292    0.0000 C   0  0  0  0  0  0  0  0  0  0  0  0
    2.8792    0.6958    0.0000 C   0  0  0  0  0  0  0  0  0  0  0  0
    5.3417   -4.8542    0.0000 C   0  0  0  0  0  0  0  0  0  0  0  0
    4.2875   -5.8250    0.0000 C   0  0  0  0  0  0  0  0  0  0  0  0
    5.0917   -5.6500    0.0000 C   0  0  0  0  0  0  0  0  0  0  0  0
  2  3  1  0  0  0  0
  3  6  1  0  0  0  0
  4  1  2  0  0  0  0
  5  1  1  0  0  0  0
  6  5  2  0  0  0  0
  7  4  1  0  0  0  0
  8  9  2  0  0  0  0
  9  1  1  0  0  0  0
 10  2  1  0  0  0  0
 11 12  2  0  0  0  0
 12  9  1  0  0  0  0
 13  3  2  0  0  0  0
 14  4  1  0  0  0  0
 15 10  2  0  0  0  0
 16  2  1  0  0  0  0
 17 10  1  0  0  0  0
 18 16  1  0  0  0  0
 19 18  1  0  0  0  0
 20 15  1  0  0  0  0
 21 14  2  0  0  0  0
 22 14  1  0  0  0  0
 23 17  2  0  0  0  0
 24 23  1  0  0  0  0
 25 22  2  0  0  0  0
 26 21  1  0  0  0  0
 27 25  1  0  0  0  0
  8  7  1  0  0  0  0
  6 11  1  0  0  0  0
 26 27  2  0  0  0  0
 15 19  1  0  0  0  0
 20 24  2  0  0  0  0
M  END
>  <Code> (P7119831307)
P7119831307

>  <Number of H-Donors> (P7119831307)
0

>  <Number of H-Acceptors> (P7119831307)
2

>  <Number of Rotatable bonds> (P7119831307)
2

>  <CLogP> (P7119831307)
5.000000000000000e+000

>  <Number of Rings> (P7119831307)
5

>  <PSA> (P7119831307)
4.630000000000000e+001

$$$$

  -ISIS-  11102212342D

 23 26  0  0  0  0  0  0  0  0999 V2000
   -0.2708   -0.1042    0.0000 C   0  0  0  0  0  0  0  0  0  0  0  0
   -0.0083    0.6833    0.0000 N   0  0  3  0  0  0  0  0  0  0  0  0
    0.3917   -0.5917    0.0000 N   0  0  0  0  0  0  0  0  0  0  0  0
    1.0750   -0.1042    0.0000 C   0  0  0  0  0  0  0  0  0  0  0  0
   -1.0958   -0.1042    0.0000 S   0  0  0  0  0  0  0  0  0  0  0  0
    0.8167    0.6708    0.0000 C   0  0  0  0  0  0  0  0  0  0  0  0
   -1.3458    0.6833    0.0000 C   0  0  0  0  0  0  0  0  0  0  0  0
   -0.6833    1.1583    0.0000 C   0  0  0  0  0  0  0  0  0  0  0  0
    1.8500   -0.3750    0.0000 C   0  0  0  0  0  0  0  0  0  0  0  0
   -2.1333    0.9333    0.0000 C   0  0  0  0  0  0  0  0  0  0  0  0
   -2.7458    0.3833    0.0000 C   0  0  0  0  0  0  0  0  0  0  0  0
   -3.5333    0.6333    0.0000 C   0  0  0  0  0  0  0  0  0  0  0  0
    2.4625    0.1833    0.0000 C   0  0  0  0  0  0  0  0  0  0  0  0
    2.0250   -1.1792    0.0000 C   0  0  0  0  0  0  0  0  0  0  0  0
    3.4167   -0.8875    0.0000 C   0  0  0  0  0  0  0  0  0  0  0  0
   -3.7083    1.4458    0.0000 F   0  0  0  0  0  0  0  0  0  0  0  0
    3.2542   -0.0667    0.0000 C   0  0  0  0  0  0  0  0  0  0  0  0
    2.8125   -1.4375    0.0000 C   0  0  0  0  0  0  0  0  0  0  0  0
    4.1292   -1.3000    0.0000 F   0  0  0  0  0  0  0  0  0  0  0  0
   -2.5708   -0.4375    0.0000 C   0  0  0  0  0  0  0  0  0  0  0  0
   -4.1583    0.0833    0.0000 C   0  0  0  0  0  0  0  0  0  0  0  0
   -3.1958   -0.9792    0.0000 C   0  0  0  0  0  0  0  0  0  0  0  0
   -3.9708   -0.7292    0.0000 C   0  0  0  0  0  0  0  0  0  0  0  0
  2  1  1  0  0  0  0
  3  1  2  0  0  0  0
  4  3  1  0  0  0  0
  5  1  1  0  0  0  0
  6  2  1  0  0  0  0
  7  5  1  0  0  0  0
  8  2  1  0  0  0  0
  9  4  1  0  0  0  0
 10  7  1  0  0  0  0
 11 10  1  0  0  0  0
 12 11  2  0  0  0  0
 13  9  1  0  0  0  0
 14  9  2  0  0  0  0
 15 18  2  0  0  0  0
 16 12  1  0  0  0  0
 17 13  2  0  0  0  0
 18 14  1  0  0  0  0
 19 15  1  0  0  0  0
 20 11  1  0  0  0  0
 21 12  1  0  0  0  0
 22 20  2  0  0  0  0
 23 22  1  0  0  0  0
  8  7  2  0  0  0  0
  4  6  2  0  0  0  0
 17 15  1  0  0  0  0
 21 23  2  0  0  0  0
M  END
>  <Code> (P7119830974)
P7119830974

>  <Number of H-Donors> (P7119830974)
0

>  <Number of H-Acceptors> (P7119830974)
1

>  <Number of Rotatable bonds> (P7119830974)
3

>  <CLogP> (P7119830974)
4.500000000000000e+000

>  <Number of Rings> (P7119830974)
4

>  <PSA> (P7119830974)
4.550000000000000e+001

$$$$

  -ISIS-  11102212342D

 23 26  0  0  0  0  0  0  0  0999 V2000
    6.6542   -3.0667    0.0000 N   0  0  3  0  0  0  0  0  0  0  0  0
    7.1917   -2.4542    0.0000 C   0  0  0  0  0  0  0  0  0  0  0  0
    7.0750   -3.7792    0.0000 N   0  0  0  0  0  0  0  0  0  0  0  0
    7.9500   -2.7792    0.0000 S   0  0  0  0  0  0  0  0  0  0  0  0
    5.8875   -2.7292    0.0000 C   0  0  0  0  0  0  0  0  0  0  0  0
    7.8750   -3.5917    0.0000 C   0  0  0  0  0  0  0  0  0  0  0  0
    6.7667   -1.7292    0.0000 N   0  0  0  0  0  0  0  0  0  0  0  0
    5.9667   -1.9125    0.0000 N   0  0  0  0  0  0  0  0  0  0  0  0
    5.1750   -3.1542    0.0000 C   0  0  0  0  0  0  0  0  0  0  0  0
    8.4917   -4.1292    0.0000 C   0  0  0  0  0  0  0  0  0  0  0  0
    9.7292   -5.2292    0.0000 N   0  0  0  0  0  0  0  0  0  0  0  0
    4.4542   -2.7417    0.0000 O   0  0  0  0  0  0  0  0  0  0  0  0
    3.7417   -3.1542    0.0000 C   0  0  0  0  0  0  0  0  0  0  0  0
    3.0292   -2.7417    0.0000 C   0  0  0  0  0  0  0  0  0  0  0  0
    2.3167   -3.1542    0.0000 C   0  0  0  0  0  0  0  0  0  0  0  0
    3.0292   -4.3792    0.0000 C   0  0  0  0  0  0  0  0  0  0  0  0
    8.9542   -5.4917    0.0000 C   0  0  0  0  0  0  0  0  0  0  0  0
    9.8917   -4.4125    0.0000 C   0  0  0  0  0  0  0  0  0  0  0  0
    8.3292   -4.9500    0.0000 C   0  0  0  0  0  0  0  0  0  0  0  0
    9.2667   -3.8667    0.0000 C   0  0  0  0  0  0  0  0  0  0  0  0
    3.7417   -3.9667    0.0000 C   0  0  0  0  0  0  0  0  0  0  0  0
    2.3167   -3.9792    0.0000 C   0  0  0  0  0  0  0  0  0  0  0  0
    1.5917   -2.7417    0.0000 C   0  0  0  0  0  0  0  0  0  0  0  0
  2  1  1  0  0  0  0
  3  1  1  0  0  0  0
  4  2  1  0  0  0  0
  5  1  1  0  0  0  0
  6  3  2  0  0  0  0
  7  2  2  0  0  0  0
  8  5  2  0  0  0  0
  9  5  1  0  0  0  0
 10  6  1  0  0  0  0
 11 18  1  0  0  0  0
 12  9  1  0  0  0  0
 13 12  1  0  0  0  0
 14 13  2  0  0  0  0
 15 14  1  0  0  0  0
 16 21  2  0  0  0  0
 17 19  1  0  0  0  0
 18 20  2  0  0  0  0
 19 10  2  0  0  0  0
 20 10  1  0  0  0  0
 21 13  1  0  0  0  0
 22 16  1  0  0  0  0
 23 15  1  0  0  0  0
  7  8  1  0  0  0  0
  6  4  1  0  0  0  0
 17 11  2  0  0  0  0
 15 22  2  0  0  0  0
M  END
>  <Code> (P7119830224)
P7119830224

>  <Number of H-Donors> (P7119830224)
0

>  <Number of H-Acceptors> (P7119830224)
5

>  <Number of Rotatable bonds> (P7119830224)
4

>  <CLogP> (P7119830224)
2.500000000000000e+000

>  <Number of Rings> (P7119830224)
4

>  <PSA> (P7119830224)
9.340000000000002e+001

$$$$

  -ISIS-  11102212342D

 27 30  0  0  0  0  0  0  0  0999 V2000
    6.6542   -3.0667    0.0000 N   0  0  3  0  0  0  0  0  0  0  0  0
    7.1917   -2.4542    0.0000 C   0  0  0  0  0  0  0  0  0  0  0  0
    7.0750   -3.7792    0.0000 N   0  0  0  0  0  0  0  0  0  0  0  0
    7.9500   -2.7792    0.0000 S   0  0  0  0  0  0  0  0  0  0  0  0
    7.8750   -3.5917    0.0000 C   0  0  0  0  0  0  0  0  0  0  0  0
    5.8875   -2.7292    0.0000 C   0  0  0  0  0  0  0  0  0  0  0  0
    6.7667   -1.7292    0.0000 N   0  0  0  0  0  0  0  0  0  0  0  0
    5.9667   -1.9125    0.0000 N   0  0  0  0  0  0  0  0  0  0  0  0
    8.4917   -4.1292    0.0000 C   0  0  0  0  0  0  0  0  0  0  0  0
    9.2667   -3.8667    0.0000 C   0  0  0  0  0  0  0  0  0  0  0  0
    9.8917   -4.4125    0.0000 C   0  0  0  0  0  0  0  0  0  0  0  0
    5.1750   -3.1542    0.0000 C   0  0  0  0  0  0  0  0  0  0  0  0
    9.7292   -5.2292    0.0000 C   0  0  0  0  0  0  0  0  0  0  0  0
    8.3292   -4.9500    0.0000 C   0  0  0  0  0  0  0  0  0  0  0  0
    8.9542   -5.4917    0.0000 C   0  0  0  0  0  0  0  0  0  0  0  0
    4.4542   -2.7417    0.0000 O   0  0  0  0  0  0  0  0  0  0  0  0
    3.7417   -3.1542    0.0000 C   0  0  0  0  0  0  0  0  0  0  0  0
    3.0292   -2.7417    0.0000 C   0  0  0  0  0  0  0  0  0  0  0  0
   10.6750   -4.1500    0.0000 O   0  0  0  0  0  0  0  0  0  0  0  0
    2.3167   -3.1542    0.0000 C   0  0  0  0  0  0  0  0  0  0  0  0
   10.3500   -5.7750    0.0000 O   0  0  0  0  0  0  0  0  0  0  0  0
    3.0292   -4.3792    0.0000 C   0  0  0  0  0  0  0  0  0  0  0  0
    3.7417   -3.9667    0.0000 C   0  0  0  0  0  0  0  0  0  0  0  0
    2.3167   -3.9792    0.0000 C   0  0  0  0  0  0  0  0  0  0  0  0
    1.5917   -2.7417    0.0000 C   0  0  0  0  0  0  0  0  0  0  0  0
   10.8292   -3.3292    0.0000 C   0  0  0  0  0  0  0  0  0  0  0  0
   11.1375   -5.5042    0.0000 C   0  0  0  0  0  0  0  0  0  0  0  0
  2  1  1  0  0  0  0
  3  1  1  0  0  0  0
  4  2  1  0  0  0  0
  5  3  2  0  0  0  0
  6  1  1  0  0  0  0
  7  2  2  0  0  0  0
  8  6  2  0  0  0  0
  9  5  1  0  0  0  0
 10  9  1  0  0  0  0
 11 10  2  0  0  0  0
 12  6  1  0  0  0  0
 13 15  2  0  0  0  0
 14  9  2  0  0  0  0
 15 14  1  0  0  0  0
 16 12  1  0  0  0  0
 17 16  1  0  0  0  0
 18 17  2  0  0  0  0
 19 11  1  0  0  0  0
 20 18  1  0  0  0  0
 21 13  1  0  0  0  0
 22 23  2  0  0  0  0
 23 17  1  0  0  0  0
 24 22  1  0  0  0  0
 25 20  1  0  0  0  0
 26 19  1  0  0  0  0
 27 21  1  0  0  0  0
  7  8  1  0  0  0  0
  5  4  1  0  0  0  0
 11 13  1  0  0  0  0
 20 24  2  0  0  0  0
M  END
>  <Code> (P7119830223)
P7119830223

>  <Number of H-Donors> (P7119830223)
0

>  <Number of H-Acceptors> (P7119830223)
6

>  <Number of Rotatable bonds> (P7119830223)
6

>  <CLogP> (P7119830223)
3.700000000000000e+000

>  <Number of Rings> (P7119830223)
4

>  <PSA> (P7119830223)
9.900000000000000e+001

$$$$

  -ISIS-  11102212342D

 28 31  0  0  0  0  0  0  0  0999 V2000
    2.9667   -7.0042    0.0000 C   0  0  0  0  0  0  0  0  0  0  0  0
    3.9042   -7.4167    0.0000 N   0  0  3  0  0  0  0  0  0  0  0  0
    2.2792   -7.7667    0.0000 C   0  0  0  0  0  0  0  0  0  0  0  0
    3.8000   -8.4417    0.0000 C   0  0  0  0  0  0  0  0  0  0  0  0
    2.7917   -8.6542    0.0000 C   0  0  0  0  0  0  0  0  0  0  0  0
    4.4917   -9.2042    0.0000 N   0  0  0  0  0  0  0  0  0  0  0  0
    2.4792   -9.6292    0.0000 N   0  0  0  0  0  0  0  0  0  0  0  0
    1.2625   -7.6542    0.0000 C   0  0  0  0  0  0  0  0  0  0  0  0
    4.8000   -6.9042    0.0000 C   0  0  0  0  0  0  0  0  0  0  0  0
    4.1667  -10.1792    0.0000 C   0  0  0  0  0  0  0  0  0  0  0  0
    3.1667  -10.3875    0.0000 C   0  0  0  0  0  0  0  0  0  0  0  0
    2.7542   -6.0042    0.0000 N   0  0  0  0  0  0  0  0  0  0  0  0
    0.8417   -6.7250    0.0000 O   0  0  0  0  0  0  0  0  0  0  0  0
    0.6625   -8.4875    0.0000 O   0  0  0  0  0  0  0  0  0  0  0  0
    4.8000   -5.9042    0.0000 C   0  0  0  0  0  0  0  0  0  0  0  0
    5.6875   -7.4167    0.0000 C   0  0  0  0  0  0  0  0  0  0  0  0
    1.4417   -5.8917    0.0000 C   0  0  0  0  0  0  0  0  0  0  0  0
    6.5500   -6.9042    0.0000 C   0  0  0  0  0  0  0  0  0  0  0  0
    5.6875   -5.4000    0.0000 C   0  0  0  0  0  0  0  0  0  0  0  0
    6.5500   -5.9042    0.0000 C   0  0  0  0  0  0  0  0  0  0  0  0
    4.8542  -10.9417    0.0000 C   0  0  0  0  0  0  0  0  0  0  0  0
    2.8500  -11.3625    0.0000 C   0  0  0  0  0  0  0  0  0  0  0  0
    1.0292   -4.9542    0.0000 C   0  0  3  0  0  0  0  0  0  0  0  0
    7.3792   -5.4000    0.0000 C   0  0  0  0  0  0  0  0  0  0  0  0
    0.0125   -4.8542    0.0000 C   0  0  0  0  0  0  0  0  0  0  0  0
    1.6292   -4.1292    0.0000 C   0  0  0  0  0  0  0  0  0  0  0  0
    4.5375  -11.9125    0.0000 C   0  0  0  0  0  0  0  0  0  0  0  0
    3.5292  -12.1167    0.0000 C   0  0  0  0  0  0  0  0  0  0  0  0
  2  1  1  0  0  0  0
  3  1  2  0  0  0  0
  4  2  1  0  0  0  0
  5  3  1  0  0  0  0
  6  4  2  0  0  0  0
  7  5  2  0  0  0  0
  8  3  1  0  0  0  0
  9  2  1  0  0  0  0
 10  6  1  0  0  0  0
 11  7  1  0  0  0  0
 12  1  1  0  0  0  0
 13  8  1  0  0  0  0
 14  8  2  0  0  0  0
 15  9  1  0  0  0  0
 16  9  2  0  0  0  0
 17 13  1  0  0  0  0
 18 16  1  0  0  0  0
 19 15  2  0  0  0  0
 20 18  2  0  0  0  0
 21 10  1  0  0  0  0
 22 11  1  0  0  0  0
 23 17  1  0  0  0  0
 24 20  1  0  0  0  0
 25 23  1  0  0  0  0
 26 23  1  0  0  0  0
 27 21  2  0  0  0  0
 28 22  2  0  0  0  0
  5  4  1  0  0  0  0
 11 10  2  0  0  0  0
 19 20  1  0  0  0  0
 28 27  1  0  0  0  0
M  END
>  <Code> (P7119790588)
P7119790588

>  <Number of H-Donors> (P7119790588)
1

>  <Number of H-Acceptors> (P7119790588)
5

>  <Number of Rotatable bonds> (P7119790588)
5

>  <CLogP> (P7119790588)
4.900000000000000e+000

>  <Number of Rings> (P7119790588)
4

>  <PSA> (P7119790588)
8.300000000000000e+001

$$$$

  -ISIS-  11102212342D

 22 23  0  0  0  0  0  0  0  0999 V2000
   13.1625   -3.7292    0.0000 C   0  0  0  0  0  0  0  0  0  0  0  0
   14.5167   -1.2500    0.0000 N   0  3  0  0  0  0  0  0  0  0  0  0
   11.7542   -6.1750    0.0000 C   0  0  0  0  0  0  0  0  0  0  0  0
   14.5542   -2.8917    0.0000 C   0  0  0  0  0  0  0  0  0  0  0  0
   13.1792   -5.3542    0.0000 C   0  0  0  0  0  0  0  0  0  0  0  0
   11.7292   -2.9042    0.0000 C   0  0  0  0  0  0  0  0  0  0  0  0
   10.3417   -5.3667    0.0000 N   0  0  0  0  0  0  0  0  0  0  0  0
   15.9250   -0.4125    0.0000 O   0  5  0  0  0  0  0  0  0  0  0  0
   13.0875   -0.4542    0.0000 O   0  0  0  0  0  0  0  0  0  0  0  0
   11.7750   -7.8167    0.0000 O   0  0  0  0  0  0  0  0  0  0  0  0
    8.9167   -6.1917    0.0000 C   0  0  0  0  0  0  0  0  0  0  0  0
   10.3167   -3.7417    0.0000 O   0  0  0  0  0  0  0  0  0  0  0  0
    7.4917   -5.3792    0.0000 C   0  0  0  0  0  0  0  0  0  0  0  0
   11.7167   -1.2667    0.0000 O   0  0  0  0  0  0  0  0  0  0  0  0
    6.0792   -6.2167    0.0000 C   0  0  0  0  0  0  0  0  0  0  0  0
    4.6542   -5.4042    0.0000 F   0  0  0  0  0  0  0  0  0  0  0  0
   15.9667   -3.6792    0.0000 C   0  0  0  0  0  0  0  0  0  0  0  0
   14.5917   -6.1417    0.0000 C   0  0  0  0  0  0  0  0  0  0  0  0
   16.0000   -5.3167    0.0000 C   0  0  0  0  0  0  0  0  0  0  0  0
    7.5125   -8.6667    0.0000 C   0  0  0  0  0  0  0  0  0  0  0  0
    8.9167   -7.8292    0.0000 C   0  0  0  0  0  0  0  0  0  0  0  0
    6.0917   -7.8417    0.0000 C   0  0  0  0  0  0  0  0  0  0  0  0
  2  4  1  0  0  0  0
  3  5  1  0  0  0  0
  4  1  1  0  0  0  0
  5  1  2  0  0  0  0
  6  1  1  0  0  0  0
  7  3  1  0  0  0  0
  8  2  1  0  0  0  0
  9  2  2  0  0  0  0
 10  3  2  0  0  0  0
 11  7  1  0  0  0  0
 12  6  2  0  0  0  0
 13 11  1  0  0  0  0
 14  6  1  0  0  0  0
 15 13  2  0  0  0  0
 16 15  1  0  0  0  0
 17  4  2  0  0  0  0
 18  5  1  0  0  0  0
 19 18  2  0  0  0  0
 20 21  1  0  0  0  0
 21 11  2  0  0  0  0
 22 20  2  0  0  0  0
 19 17  1  0  0  0  0
 22 15  1  0  0  0  0
M  CHG  2   2   1   8  -1
M  END
>  <Code> (P7119760195)
P7119760195

>  <Number of H-Donors> (P7119760195)
2

>  <Number of H-Acceptors> (P7119760195)
5

>  <Number of Rotatable bonds> (P7119760195)
4

>  <CLogP> (P7119760195)
2.300000000000000e+000

>  <Number of Rings> (P7119760195)
2

>  <PSA> (P7119760195)
1.122000000000000e+002

$$$$

  -ISIS-  11102212342D

 26 29  0  0  0  0  0  0  0  0999 V2000
    4.7667   -1.2917    0.0000 N   0  0  3  0  0  0  0  0  0  0  0  0
    5.2542   -0.6167    0.0000 C   0  0  0  0  0  0  0  0  0  0  0  0
    4.7667    0.0583    0.0000 N   0  0  0  0  0  0  0  0  0  0  0  0
    3.9750   -1.0375    0.0000 C   0  0  0  0  0  0  0  0  0  0  0  0
    3.9792   -0.2042    0.0000 C   0  0  0  0  0  0  0  0  0  0  0  0
    5.1792   -2.0042    0.0000 C   0  0  0  0  0  0  0  0  0  0  0  0
    6.0875   -0.6167    0.0000 C   0  0  0  0  0  0  0  0  0  0  0  0
    7.7375   -0.6167    0.0000 C   0  0  0  0  0  0  0  0  0  0  0  0
    4.7625   -2.7167    0.0000 C   0  0  0  0  0  0  0  0  0  0  0  0
    4.7667   -4.1417    0.0000 C   0  0  0  0  0  0  0  0  0  0  0  0
    5.1792   -3.4292    0.0000 C   0  0  0  0  0  0  0  0  0  0  0  0
    8.5625   -0.6167    0.0000 O   0  0  0  0  0  0  0  0  0  0  0  0
    3.9417   -4.1417    0.0000 C   0  0  0  0  0  0  0  0  0  0  0  0
    7.3292   -1.3292    0.0000 N   0  0  0  0  0  0  0  0  0  0  0  0
    3.5292   -3.4292    0.0000 C   0  0  0  0  0  0  0  0  0  0  0  0
    6.5042   -1.3292    0.0000 C   0  0  0  0  0  0  0  0  0  0  0  0
    3.9417   -2.7167    0.0000 C   0  0  0  0  0  0  0  0  0  0  0  0
    3.2542   -1.4542    0.0000 C   0  0  0  0  0  0  0  0  0  0  0  0
    3.2542    0.2083    0.0000 C   0  0  0  0  0  0  0  0  0  0  0  0
    7.3250    0.0958    0.0000 C   0  0  0  0  0  0  0  0  0  0  0  0
    5.1792   -4.8542    0.0000 C   0  0  0  0  0  0  0  0  0  0  0  0
    3.5292   -4.8542    0.0000 C   0  0  0  0  0  0  0  0  0  0  0  0
    2.5375   -1.0375    0.0000 C   0  0  0  0  0  0  0  0  0  0  0  0
    2.5375   -0.2000    0.0000 C   0  0  0  0  0  0  0  0  0  0  0  0
    4.7750   -5.5750    0.0000 C   0  0  0  0  0  0  0  0  0  0  0  0
    3.9417   -5.5750    0.0000 C   0  0  0  0  0  0  0  0  0  0  0  0
  2  1  1  0  0  0  0
  3  2  2  0  0  0  0
  4  1  1  0  0  0  0
  5  4  2  0  0  0  0
  6  1  1  0  0  0  0
  7  2  1  0  0  0  0
  8 14  1  0  0  0  0
  9  6  1  0  0  0  0
 10 11  2  0  0  0  0
 11  9  1  0  0  0  0
 12  8  2  0  0  0  0
 13 15  2  0  0  0  0
 14 16  1  0  0  0  0
 15 17  1  0  0  0  0
 16  7  1  0  0  0  0
 17  9  2  0  0  0  0
 18  4  1  0  0  0  0
 19  5  1  0  0  0  0
 20  8  1  0  0  0  0
 21 10  1  0  0  0  0
 22 13  1  0  0  0  0
 23 18  2  0  0  0  0
 24 23  1  0  0  0  0
 25 21  2  0  0  0  0
 26 22  2  0  0  0  0
  3  5  1  0  0  0  0
 19 24  2  0  0  0  0
 10 13  1  0  0  0  0
 25 26  1  0  0  0  0
M  END
>  <Code> (P7119730592)
P7119730592

>  <Number of H-Donors> (P7119730592)
1

>  <Number of H-Acceptors> (P7119730592)
2

>  <Number of Rotatable bonds> (P7119730592)
5

>  <CLogP> (P7119730592)
3.600000000000000e+000

>  <Number of Rings> (P7119730592)
4

>  <PSA> (P7119730592)
4.689999999999999e+001

$$$$

  -ISIS-  11102212342D

 32 36  0  0  0  0  0  0  0  0999 V2000
    6.5167   -2.4792    0.0000 C   0  0  0  0  0  0  0  0  0  0  0  0
    3.6625   -2.4875    0.0000 C   0  0  0  0  0  0  0  0  0  0  0  0
    5.8042   -2.8917    0.0000 C   0  0  0  0  0  0  0  0  0  0  0  0
    6.5167   -1.6542    0.0000 C   0  0  0  0  0  0  0  0  0  0  0  0
    2.8750   -2.7417    0.0000 C   0  0  0  0  0  0  0  0  0  0  0  0
    2.3917   -2.0750    0.0000 C   0  0  0  0  0  0  0  0  0  0  0  0
    5.0917   -2.4792    0.0000 C   0  0  0  0  0  0  0  0  0  0  0  0
    3.6625   -1.6542    0.0000 C   0  0  0  0  0  0  0  0  0  0  0  0
    5.0917   -1.6542    0.0000 C   0  0  0  0  0  0  0  0  0  0  0  0
    2.8750   -1.4042    0.0000 O   0  0  0  0  0  0  0  0  0  0  0  0
    5.8042   -1.2417    0.0000 O   0  0  0  0  0  0  0  0  0  0  0  0
    4.3792   -2.8917    0.0000 C   0  0  0  0  0  0  0  0  0  0  0  0
    4.3792   -1.2417    0.0000 C   0  0  0  0  0  0  0  0  0  0  0  0
    7.2417   -2.9042    0.0000 C   0  0  0  0  0  0  0  0  0  0  0  0
    7.2375   -3.7292    0.0000 C   0  0  0  0  0  0  0  0  0  0  0  0
    8.6667   -5.3875    0.0000 C   0  0  0  0  0  0  0  0  0  0  0  0
    9.4500   -5.1292    0.0000 O   0  0  0  0  0  0  0  0  0  0  0  0
    7.2417   -1.2417    0.0000 O   0  0  0  0  0  0  0  0  0  0  0  0
    2.6250   -3.5292    0.0000 C   0  0  0  0  0  0  0  0  0  0  0  0
    7.9542   -4.1417    0.0000 N   0  0  0  0  0  0  0  0  0  0  0  0
    8.6667   -6.2167    0.0000 C   0  0  0  0  0  0  0  0  0  0  0  0
    9.9292   -5.8042    0.0000 C   0  0  0  0  0  0  0  0  0  0  0  0
    9.4500   -6.4667    0.0000 C   0  0  0  0  0  0  0  0  0  0  0  0
    6.5250   -4.1417    0.0000 O   0  0  0  0  0  0  0  0  0  0  0  0
    7.9542   -4.9750    0.0000 C   0  0  0  0  0  0  0  0  0  0  0  0
    5.8042   -3.7167    0.0000 C   0  0  0  0  0  0  0  0  0  0  0  0
    1.5667   -2.0750    0.0000 C   0  0  0  0  0  0  0  0  0  0  0  0
    1.8167   -3.7000    0.0000 C   0  0  0  0  0  0  0  0  0  0  0  0
    3.1750   -4.1292    0.0000 C   0  0  0  0  0  0  0  0  0  0  0  0
    2.9250   -4.9167    0.0000 C   0  0  0  0  0  0  0  0  0  0  0  0
    1.5625   -4.4792    0.0000 C   0  0  0  0  0  0  0  0  0  0  0  0
    2.1167   -5.0917    0.0000 C   0  0  0  0  0  0  0  0  0  0  0  0
  2 12  1  0  0  0  0
  3  1  2  0  0  0  0
  4  1  1  0  0  0  0
  5  2  1  0  0  0  0
  6  5  2  0  0  0  0
  7  3  1  0  0  0  0
  8 13  1  0  0  0  0
  9 11  1  0  0  0  0
 10  8  1  0  0  0  0
 11  4  1  0  0  0  0
 12  7  2  0  0  0  0
 13  9  2  0  0  0  0
 14  1  1  0  0  0  0
 15 14  1  0  0  0  0
 16 25  1  0  0  0  0
 17 16  1  0  0  0  0
 18  4  2  0  0  0  0
 19  5  1  0  0  0  0
 20 15  1  0  0  0  0
 21 16  2  0  0  0  0
 22 17  1  0  0  0  0
 23 21  1  0  0  0  0
 24 15  2  0  0  0  0
 25 20  1  0  0  0  0
 26  3  1  0  0  0  0
 27  6  1  0  0  0  0
 28 19  2  0  0  0  0
 29 19  1  0  0  0  0
 30 29  2  0  0  0  0
 31 28  1  0  0  0  0
 32 30  1  0  0  0  0
  7  9  1  0  0  0  0
  8  2  2  0  0  0  0
  6 10  1  0  0  0  0
 22 23  2  0  0  0  0
 32 31  2  0  0  0  0
M  END
>  <Code> (P7119692473)
P7119692473

>  <Number of H-Donors> (P7119692473)
1

>  <Number of H-Acceptors> (P7119692473)
3

>  <Number of Rotatable bonds> (P7119692473)
5

>  <CLogP> (P7119692473)
4.300000000000000e+000

>  <Number of Rings> (P7119692473)
5

>  <PSA> (P7119692473)
8.170000000000000e+001

$$$$

  -ISIS-  11102212342D

 32 35  0  0  0  0  0  0  0  0999 V2000
    4.8542   -2.1917    0.0000 C   0  0  0  0  0  0  0  0  0  0  0  0
    4.1417   -1.7792    0.0000 C   0  0  0  0  0  0  0  0  0  0  0  0
    5.5667   -1.7792    0.0000 C   0  0  0  0  0  0  0  0  0  0  0  0
    3.4292   -2.1917    0.0000 C   0  0  0  0  0  0  0  0  0  0  0  0
    5.5667   -0.9542    0.0000 C   0  0  0  0  0  0  0  0  0  0  0  0
    4.1417   -0.9542    0.0000 C   0  0  0  0  0  0  0  0  0  0  0  0
    4.8542   -0.5417    0.0000 O   0  0  0  0  0  0  0  0  0  0  0  0
    2.7167   -1.7875    0.0000 C   0  0  0  0  0  0  0  0  0  0  0  0
    3.2625   -3.0042    0.0000 O   0  0  0  0  0  0  0  0  0  0  0  0
    2.7125   -0.9542    0.0000 C   0  0  0  0  0  0  0  0  0  0  0  0
    2.4417   -3.0917    0.0000 C   0  0  0  0  0  0  0  0  0  0  0  0
    2.1042   -2.3417    0.0000 C   0  0  0  0  0  0  0  0  0  0  0  0
    3.4292   -0.5417    0.0000 C   0  0  0  0  0  0  0  0  0  0  0  0
    6.2917   -2.2042    0.0000 C   0  0  0  0  0  0  0  0  0  0  0  0
    6.2875   -3.0292    0.0000 C   0  0  0  0  0  0  0  0  0  0  0  0
    8.4292   -5.9292    0.0000 C   0  0  0  0  0  0  0  0  0  0  0  0
    6.2917   -0.5417    0.0000 O   0  0  0  0  0  0  0  0  0  0  0  0
    7.0042   -3.4417    0.0000 N   0  0  0  0  0  0  0  0  0  0  0  0
    9.1500   -5.5167    0.0000 C   0  0  0  0  0  0  0  0  0  0  0  0
    7.7167   -5.5167    0.0000 C   0  0  0  0  0  0  0  0  0  0  0  0
    5.5750   -3.4417    0.0000 O   0  0  0  0  0  0  0  0  0  0  0  0
    9.1500   -4.6875    0.0000 C   0  0  0  0  0  0  0  0  0  0  0  0
    4.8542   -3.0167    0.0000 C   0  0  0  0  0  0  0  0  0  0  0  0
    7.7167   -4.6875    0.0000 C   0  0  0  0  0  0  0  0  0  0  0  0
    7.0042   -4.2750    0.0000 C   0  0  0  0  0  0  0  0  0  0  0  0
    8.4292   -4.2750    0.0000 C   0  0  0  0  0  0  0  0  0  0  0  0
    8.4167   -6.7542    0.0000 O   0  0  0  0  0  0  0  0  0  0  0  0
    9.8750   -5.9292    0.0000 O   0  0  0  0  0  0  0  0  0  0  0  0
    1.9917   -0.5500    0.0000 C   0  0  0  0  0  0  0  0  0  0  0  0
    1.3000   -2.1667    0.0000 C   0  0  0  0  0  0  0  0  0  0  0  0
    9.1292   -7.1667    0.0000 C   0  0  0  0  0  0  0  0  0  0  0  0
    9.8792   -6.7667    0.0000 C   0  0  0  0  0  0  0  0  0  0  0  0
  2  1  1  0  0  0  0
  3  1  2  0  0  0  0
  4  2  2  0  0  0  0
  5  3  1  0  0  0  0
  6  2  1  0  0  0  0
  7  5  1  0  0  0  0
  8  4  1  0  0  0  0
  9  4  1  0  0  0  0
 10 13  1  0  0  0  0
 11  9  1  0  0  0  0
 12  8  1  0  0  0  0
 13  6  2  0  0  0  0
 14  3  1  0  0  0  0
 15 14  1  0  0  0  0
 16 20  1  0  0  0  0
 17  5  2  0  0  0  0
 18 15  1  0  0  0  0
 19 22  1  0  0  0  0
 20 24  2  0  0  0  0
 21 15  2  0  0  0  0
 22 26  2  0  0  0  0
 23  1  1  0  0  0  0
 24 25  1  0  0  0  0
 25 18  1  0  0  0  0
 26 24  1  0  0  0  0
 27 16  1  0  0  0  0
 28 19  1  0  0  0  0
 29 10  1  0  0  0  0
 30 12  1  0  0  0  0
 31 27  1  0  0  0  0
 32 28  1  0  0  0  0
  7  6  1  0  0  0  0
 10  8  2  0  0  0  0
 11 12  2  0  0  0  0
 19 16  2  0  0  0  0
M  END
>  <Code> (P7119692405)
P7119692405

>  <Number of H-Donors> (P7119692405)
1

>  <Number of H-Acceptors> (P7119692405)
5

>  <Number of Rotatable bonds> (P7119692405)
6

>  <CLogP> (P7119692405)
4.400000000000000e+000

>  <Number of Rings> (P7119692405)
4

>  <PSA> (P7119692405)
8.700000000000000e+001

$$$$

  -ISIS-  11102212342D

 29 32  0  0  0  0  0  0  0  0999 V2000
    4.8667   -2.8167    0.0000 C   0  0  0  0  0  0  0  0  0  0  0  0
    4.1542   -2.4042    0.0000 C   0  0  0  0  0  0  0  0  0  0  0  0
    5.5792   -2.4042    0.0000 C   0  0  0  0  0  0  0  0  0  0  0  0
    3.4417   -2.8167    0.0000 C   0  0  0  0  0  0  0  0  0  0  0  0
    5.5792   -1.5792    0.0000 C   0  0  0  0  0  0  0  0  0  0  0  0
    4.1542   -1.5792    0.0000 C   0  0  0  0  0  0  0  0  0  0  0  0
    4.8667   -1.1667    0.0000 O   0  0  0  0  0  0  0  0  0  0  0  0
    2.7250   -2.4125    0.0000 C   0  0  0  0  0  0  0  0  0  0  0  0
    3.2792   -3.6250    0.0000 O   0  0  0  0  0  0  0  0  0  0  0  0
    2.7250   -1.5792    0.0000 C   0  0  0  0  0  0  0  0  0  0  0  0
    2.4625   -3.7167    0.0000 C   0  0  0  0  0  0  0  0  0  0  0  0
    2.1167   -2.9667    0.0000 C   0  0  0  0  0  0  0  0  0  0  0  0
    3.4417   -1.1667    0.0000 C   0  0  0  0  0  0  0  0  0  0  0  0
    6.3042   -2.8250    0.0000 C   0  0  0  0  0  0  0  0  0  0  0  0
    6.3000   -3.6542    0.0000 C   0  0  0  0  0  0  0  0  0  0  0  0
    6.3042   -1.1667    0.0000 O   0  0  0  0  0  0  0  0  0  0  0  0
    7.0167   -4.0667    0.0000 N   0  0  0  0  0  0  0  0  0  0  0  0
    5.5875   -4.0667    0.0000 O   0  0  0  0  0  0  0  0  0  0  0  0
    4.8667   -3.6417    0.0000 C   0  0  0  0  0  0  0  0  0  0  0  0
    7.0167   -4.8917    0.0000 C   0  0  0  0  0  0  0  0  0  0  0  0
    7.7292   -5.3042    0.0000 C   0  0  0  0  0  0  0  0  0  0  0  0
    9.1625   -6.1375    0.0000 C   0  0  0  0  0  0  0  0  0  0  0  0
    8.4417   -4.8917    0.0000 C   0  0  0  0  0  0  0  0  0  0  0  0
    7.7292   -6.1375    0.0000 C   0  0  0  0  0  0  0  0  0  0  0  0
    8.4417   -6.5500    0.0000 C   0  0  0  0  0  0  0  0  0  0  0  0
    9.1625   -5.3042    0.0000 C   0  0  0  0  0  0  0  0  0  0  0  0
    2.0042   -1.1667    0.0000 C   0  0  0  0  0  0  0  0  0  0  0  0
    1.3125   -2.8042    0.0000 C   0  0  0  0  0  0  0  0  0  0  0  0
    9.8875   -6.5542    0.0000 C   0  0  0  0  0  0  0  0  0  0  0  0
  2  1  1  0  0  0  0
  3  1  2  0  0  0  0
  4  2  2  0  0  0  0
  5  3  1  0  0  0  0
  6  2  1  0  0  0  0
  7  5  1  0  0  0  0
  8  4  1  0  0  0  0
  9  4  1  0  0  0  0
 10 13  1  0  0  0  0
 11  9  1  0  0  0  0
 12  8  1  0  0  0  0
 13  6  2  0  0  0  0
 14  3  1  0  0  0  0
 15 14  1  0  0  0  0
 16  5  2  0  0  0  0
 17 15  1  0  0  0  0
 18 15  2  0  0  0  0
 19  1  1  0  0  0  0
 20 17  1  0  0  0  0
 21 20  1  0  0  0  0
 22 25  2  0  0  0  0
 23 21  1  0  0  0  0
 24 21  2  0  0  0  0
 25 24  1  0  0  0  0
 26 23  2  0  0  0  0
 27 10  1  0  0  0  0
 28 12  1  0  0  0  0
 29 22  1  0  0  0  0
  6  7  1  0  0  0  0
  8 10  2  0  0  0  0
 12 11  2  0  0  0  0
 26 22  1  0  0  0  0
M  END
>  <Code> (P7119692398)
P7119692398

>  <Number of H-Donors> (P7119692398)
1

>  <Number of H-Acceptors> (P7119692398)
3

>  <Number of Rotatable bonds> (P7119692398)
4

>  <CLogP> (P7119692398)
4.900000000000000e+000

>  <Number of Rings> (P7119692398)
4

>  <PSA> (P7119692398)
6.850000000000000e+001

$$$$

  -ISIS-  11102212342D

 30 33  0  0  0  0  0  0  0  0999 V2000
    6.3542   -2.1792    0.0000 C   0  0  0  0  0  0  0  0  0  0  0  0
    5.6417   -2.5917    0.0000 C   0  0  0  0  0  0  0  0  0  0  0  0
    6.3542   -1.3542    0.0000 C   0  0  0  0  0  0  0  0  0  0  0  0
    4.9292   -2.1792    0.0000 C   0  0  0  0  0  0  0  0  0  0  0  0
    3.5000   -2.1792    0.0000 C   0  0  0  0  0  0  0  0  0  0  0  0
    4.9292   -1.3542    0.0000 C   0  0  0  0  0  0  0  0  0  0  0  0
    3.5000   -1.3542    0.0000 C   0  0  0  0  0  0  0  0  0  0  0  0
    2.7167   -2.4375    0.0000 C   0  0  0  0  0  0  0  0  0  0  0  0
    5.6417   -0.9417    0.0000 O   0  0  0  0  0  0  0  0  0  0  0  0
    2.2292   -1.7750    0.0000 C   0  0  0  0  0  0  0  0  0  0  0  0
    2.7167   -1.1042    0.0000 O   0  0  0  0  0  0  0  0  0  0  0  0
    4.2167   -2.5917    0.0000 C   0  0  0  0  0  0  0  0  0  0  0  0
    4.2167   -0.9417    0.0000 C   0  0  0  0  0  0  0  0  0  0  0  0
    7.0792   -2.6042    0.0000 C   0  0  0  0  0  0  0  0  0  0  0  0
    7.0750   -3.4292    0.0000 C   0  0  0  0  0  0  0  0  0  0  0  0
    7.0792   -0.9417    0.0000 O   0  0  0  0  0  0  0  0  0  0  0  0
    6.3625   -3.8417    0.0000 O   0  0  0  0  0  0  0  0  0  0  0  0
    9.2167   -6.3292    0.0000 C   0  0  0  0  0  0  0  0  0  0  0  0
    8.5042   -5.9167    0.0000 C   0  0  0  0  0  0  0  0  0  0  0  0
    7.7917   -3.8417    0.0000 N   0  0  0  0  0  0  0  0  0  0  0  0
    5.6417   -3.4167    0.0000 C   0  0  0  0  0  0  0  0  0  0  0  0
    9.9375   -5.9042    0.0000 F   0  0  0  0  0  0  0  0  0  0  0  0
    2.4625   -3.2250    0.0000 C   0  0  0  0  0  0  0  0  0  0  0  0
    1.4042   -1.7750    0.0000 C   0  0  0  0  0  0  0  0  0  0  0  0
    7.7917   -4.6750    0.0000 C   0  0  0  0  0  0  0  0  0  0  0  0
    8.5042   -5.0875    0.0000 C   0  0  0  0  0  0  0  0  0  0  0  0
    9.2167   -7.1542    0.0000 C   0  0  0  0  0  0  0  0  0  0  0  0
    7.7875   -6.3292    0.0000 C   0  0  0  0  0  0  0  0  0  0  0  0
    7.7875   -7.1542    0.0000 C   0  0  0  0  0  0  0  0  0  0  0  0
    8.5042   -7.5667    0.0000 C   0  0  0  0  0  0  0  0  0  0  0  0
  2  1  2  0  0  0  0
  3  1  1  0  0  0  0
  4  2  1  0  0  0  0
  5 12  1  0  0  0  0
  6  9  1  0  0  0  0
  7 13  1  0  0  0  0
  8  5  1  0  0  0  0
  9  3  1  0  0  0  0
 10  8  2  0  0  0  0
 11  7  1  0  0  0  0
 12  4  2  0  0  0  0
 13  6  2  0  0  0  0
 14  1  1  0  0  0  0
 15 14  1  0  0  0  0
 16  3  2  0  0  0  0
 17 15  2  0  0  0  0
 18 19  1  0  0  0  0
 19 26  1  0  0  0  0
 20 15  1  0  0  0  0
 21  2  1  0  0  0  0
 22 18  1  0  0  0  0
 23  8  1  0  0  0  0
 24 10  1  0  0  0  0
 25 20  1  0  0  0  0
 26 25  1  0  0  0  0
 27 18  2  0  0  0  0
 28 19  2  0  0  0  0
 29 28  1  0  0  0  0
 30 29  2  0  0  0  0
  4  6  1  0  0  0  0
  7  5  2  0  0  0  0
 10 11  1  0  0  0  0
 30 27  1  0  0  0  0
M  END
>  <Code> (P7119692364)
P7119692364

>  <Number of H-Donors> (P7119692364)
1

>  <Number of H-Acceptors> (P7119692364)
3

>  <Number of Rotatable bonds> (P7119692364)
5

>  <CLogP> (P7119692364)
4.600000000000000e+000

>  <Number of Rings> (P7119692364)
4

>  <PSA> (P7119692364)
6.850000000000000e+001

$$$$

  -ISIS-  11102212342D

 30 33  0  0  0  0  0  0  0  0999 V2000
    6.3542   -2.1792    0.0000 C   0  0  0  0  0  0  0  0  0  0  0  0
    5.6417   -2.5917    0.0000 C   0  0  0  0  0  0  0  0  0  0  0  0
    6.3542   -1.3542    0.0000 C   0  0  0  0  0  0  0  0  0  0  0  0
    4.9292   -2.1792    0.0000 C   0  0  0  0  0  0  0  0  0  0  0  0
    3.5000   -2.1792    0.0000 C   0  0  0  0  0  0  0  0  0  0  0  0
    4.9292   -1.3542    0.0000 C   0  0  0  0  0  0  0  0  0  0  0  0
    3.5000   -1.3542    0.0000 C   0  0  0  0  0  0  0  0  0  0  0  0
    2.7167   -2.4375    0.0000 C   0  0  0  0  0  0  0  0  0  0  0  0
    5.6417   -0.9417    0.0000 O   0  0  0  0  0  0  0  0  0  0  0  0
    2.2292   -1.7750    0.0000 C   0  0  0  0  0  0  0  0  0  0  0  0
    2.7167   -1.1042    0.0000 O   0  0  0  0  0  0  0  0  0  0  0  0
    4.2167   -2.5917    0.0000 C   0  0  0  0  0  0  0  0  0  0  0  0
    4.2167   -0.9417    0.0000 C   0  0  0  0  0  0  0  0  0  0  0  0
    7.0792   -2.6042    0.0000 C   0  0  0  0  0  0  0  0  0  0  0  0
    7.0750   -3.4292    0.0000 C   0  0  0  0  0  0  0  0  0  0  0  0
    7.0792   -0.9417    0.0000 O   0  0  0  0  0  0  0  0  0  0  0  0
    7.7917   -3.8417    0.0000 N   0  0  0  0  0  0  0  0  0  0  0  0
    6.3625   -3.8417    0.0000 O   0  0  0  0  0  0  0  0  0  0  0  0
    7.7917   -4.6750    0.0000 C   0  0  0  0  0  0  0  0  0  0  0  0
    5.6417   -3.4167    0.0000 C   0  0  0  0  0  0  0  0  0  0  0  0
    8.5042   -5.9167    0.0000 C   0  0  0  0  0  0  0  0  0  0  0  0
    8.5042   -5.0875    0.0000 C   0  0  0  0  0  0  0  0  0  0  0  0
    2.4625   -3.2250    0.0000 C   0  0  0  0  0  0  0  0  0  0  0  0
    9.2167   -6.3292    0.0000 C   0  0  0  0  0  0  0  0  0  0  0  0
    1.4042   -1.7750    0.0000 C   0  0  0  0  0  0  0  0  0  0  0  0
    9.2042   -7.1542    0.0000 O   0  0  0  0  0  0  0  0  0  0  0  0
    9.9375   -5.0875    0.0000 C   0  0  0  0  0  0  0  0  0  0  0  0
    9.2167   -4.6750    0.0000 C   0  0  0  0  0  0  0  0  0  0  0  0
    9.9375   -5.9167    0.0000 C   0  0  0  0  0  0  0  0  0  0  0  0
    9.9167   -7.5667    0.0000 C   0  0  0  0  0  0  0  0  0  0  0  0
  2  1  2  0  0  0  0
  3  1  1  0  0  0  0
  4  2  1  0  0  0  0
  5 12  1  0  0  0  0
  6  9  1  0  0  0  0
  7 13  1  0  0  0  0
  8  5  1  0  0  0  0
  9  3  1  0  0  0  0
 10  8  2  0  0  0  0
 11  7  1  0  0  0  0
 12  4  2  0  0  0  0
 13  6  2  0  0  0  0
 14  1  1  0  0  0  0
 15 14  1  0  0  0  0
 16  3  2  0  0  0  0
 17 15  1  0  0  0  0
 18 15  2  0  0  0  0
 19 17  1  0  0  0  0
 20  2  1  0  0  0  0
 21 22  2  0  0  0  0
 22 19  1  0  0  0  0
 23  8  1  0  0  0  0
 24 21  1  0  0  0  0
 25 10  1  0  0  0  0
 26 24  1  0  0  0  0
 27 28  2  0  0  0  0
 28 22  1  0  0  0  0
 29 27  1  0  0  0  0
 30 26  1  0  0  0  0
  4  6  1  0  0  0  0
  7  5  2  0  0  0  0
 10 11  1  0  0  0  0
 29 24  2  0  0  0  0
M  END
>  <Code> (P7119692358)
P7119692358

>  <Number of H-Donors> (P7119692358)
1

>  <Number of H-Acceptors> (P7119692358)
4

>  <Number of Rotatable bonds> (P7119692358)
5

>  <CLogP> (P7119692358)
4.100000000000000e+000

>  <Number of Rings> (P7119692358)
4

>  <PSA> (P7119692358)
7.780000000000000e+001

$$$$

  -ISIS-  11102212342D

 28 31  0  0  0  0  0  0  0  0999 V2000
    4.6000   -2.0542    0.0000 C   0  0  0  0  0  0  0  0  0  0  0  0
    3.1667   -2.0542    0.0000 C   0  0  0  0  0  0  0  0  0  0  0  0
    4.6000   -2.8792    0.0000 C   0  0  0  0  0  0  0  0  0  0  0  0
    3.1667   -2.8792    0.0000 C   0  0  0  0  0  0  0  0  0  0  0  0
    6.0292   -2.8792    0.0000 C   0  0  0  0  0  0  0  0  0  0  0  0
    5.3125   -3.2917    0.0000 C   0  0  0  0  0  0  0  0  0  0  0  0
    5.3125   -1.6417    0.0000 O   0  0  0  0  0  0  0  0  0  0  0  0
    6.0292   -2.0542    0.0000 C   0  0  0  0  0  0  0  0  0  0  0  0
    2.3792   -1.8042    0.0000 O   0  0  0  0  0  0  0  0  0  0  0  0
    3.8875   -1.6417    0.0000 C   0  0  0  0  0  0  0  0  0  0  0  0
    2.3792   -3.1375    0.0000 C   0  0  0  0  0  0  0  0  0  0  0  0
    1.9042   -2.4750    0.0000 C   0  0  0  0  0  0  0  0  0  0  0  0
    3.8875   -3.2917    0.0000 C   0  0  0  0  0  0  0  0  0  0  0  0
    6.7500   -3.3042    0.0000 C   0  0  0  0  0  0  0  0  0  0  0  0
    6.7417   -4.1292    0.0000 C   0  0  0  0  0  0  0  0  0  0  0  0
    8.1750   -5.7875    0.0000 C   0  0  0  0  0  0  0  0  0  0  0  0
    6.7500   -1.6417    0.0000 O   0  0  0  0  0  0  0  0  0  0  0  0
    8.9542   -5.5292    0.0000 O   0  0  0  0  0  0  0  0  0  0  0  0
    7.4625   -4.5417    0.0000 N   0  0  0  0  0  0  0  0  0  0  0  0
    8.1750   -6.6167    0.0000 C   0  0  0  0  0  0  0  0  0  0  0  0
    9.4417   -6.2042    0.0000 C   0  0  0  0  0  0  0  0  0  0  0  0
    8.9542   -6.8667    0.0000 C   0  0  0  0  0  0  0  0  0  0  0  0
    6.0292   -4.5417    0.0000 O   0  0  0  0  0  0  0  0  0  0  0  0
    7.4625   -5.3750    0.0000 C   0  0  0  0  0  0  0  0  0  0  0  0
    5.3125   -4.1167    0.0000 C   0  0  0  0  0  0  0  0  0  0  0  0
    3.8917   -0.8167    0.0000 C   0  0  0  0  0  0  0  0  0  0  0  0
    2.1292   -3.9250    0.0000 C   0  0  0  0  0  0  0  0  0  0  0  0
    1.0792   -2.4750    0.0000 C   0  0  0  0  0  0  0  0  0  0  0  0
  2 10  1  0  0  0  0
  3  1  1  0  0  0  0
  4  2  2  0  0  0  0
  5  8  1  0  0  0  0
  6  3  1  0  0  0  0
  7  1  1  0  0  0  0
  8  7  1  0  0  0  0
  9  2  1  0  0  0  0
 10  1  2  0  0  0  0
 11  4  1  0  0  0  0
 12  9  1  0  0  0  0
 13  3  2  0  0  0  0
 14  5  1  0  0  0  0
 15 14  1  0  0  0  0
 16 24  1  0  0  0  0
 17  8  2  0  0  0  0
 18 16  1  0  0  0  0
 19 15  1  0  0  0  0
 20 16  2  0  0  0  0
 21 18  1  0  0  0  0
 22 20  1  0  0  0  0
 23 15  2  0  0  0  0
 24 19  1  0  0  0  0
 25  6  1  0  0  0  0
 26 10  1  0  0  0  0
 27 11  1  0  0  0  0
 28 12  1  0  0  0  0
  4 13  1  0  0  0  0
  5  6  2  0  0  0  0
 11 12  2  0  0  0  0
 21 22  2  0  0  0  0
M  END
>  <Code> (P7119692339)
P7119692339

>  <Number of H-Donors> (P7119692339)
1

>  <Number of H-Acceptors> (P7119692339)
3

>  <Number of Rotatable bonds> (P7119692339)
4

>  <CLogP> (P7119692339)
3.700000000000000e+000

>  <Number of Rings> (P7119692339)
4

>  <PSA> (P7119692339)
8.170000000000000e+001

$$$$

  -ISIS-  11102212342D

 26 28  0  0  0  0  0  0  0  0999 V2000
    4.1792   -3.4417    0.0000 C   0  0  0  0  0  0  0  0  0  0  0  0
    4.9042   -3.0292    0.0000 C   0  0  0  0  0  0  0  0  0  0  0  0
    3.4667   -3.0292    0.0000 C   0  0  0  0  0  0  0  0  0  0  0  0
    4.9042   -2.2000    0.0000 C   0  0  0  0  0  0  0  0  0  0  0  0
    3.4667   -2.2000    0.0000 C   0  0  0  0  0  0  0  0  0  0  0  0
    4.1875   -1.7792    0.0000 O   0  0  0  0  0  0  0  0  0  0  0  0
    2.7542   -3.4417    0.0000 C   0  0  0  0  0  0  0  0  0  0  0  0
    5.6167   -3.4500    0.0000 C   0  0  0  0  0  0  0  0  0  0  0  0
    5.6167   -4.2750    0.0000 C   0  0  0  0  0  0  0  0  0  0  0  0
    2.7542   -1.7917    0.0000 C   0  0  0  0  0  0  0  0  0  0  0  0
    2.0417   -3.0292    0.0000 C   0  0  0  0  0  0  0  0  0  0  0  0
    5.6250   -1.7917    0.0000 O   0  0  0  0  0  0  0  0  0  0  0  0
    6.3292   -4.6875    0.0000 N   0  0  0  0  0  0  0  0  0  0  0  0
    2.0417   -2.2000    0.0000 C   0  0  0  0  0  0  0  0  0  0  0  0
    4.9042   -4.6792    0.0000 O   0  0  0  0  0  0  0  0  0  0  0  0
    2.7542   -4.2667    0.0000 O   0  0  0  0  0  0  0  0  0  0  0  0
    4.1792   -4.2667    0.0000 C   0  0  0  0  0  0  0  0  0  0  0  0
    7.0417   -4.2750    0.0000 C   0  0  0  0  0  0  0  0  0  0  0  0
    8.4667   -4.2792    0.0000 C   0  0  0  0  0  0  0  0  0  0  0  0
    9.1792   -4.6917    0.0000 C   0  0  0  0  0  0  0  0  0  0  0  0
    7.7542   -4.6917    0.0000 C   0  0  0  0  0  0  0  0  0  0  0  0
    9.8917   -4.2792    0.0000 Cl  0  0  0  0  0  0  0  0  0  0  0  0
    8.4625   -5.9375    0.0000 C   0  0  0  0  0  0  0  0  0  0  0  0
    1.3292   -1.7875    0.0000 C   0  0  0  0  0  0  0  0  0  0  0  0
    9.1792   -5.5292    0.0000 C   0  0  0  0  0  0  0  0  0  0  0  0
    7.7417   -5.5167    0.0000 C   0  0  0  0  0  0  0  0  0  0  0  0
  2  1  2  0  0  0  0
  3  1  1  0  0  0  0
  4  2  1  0  0  0  0
  5  3  1  0  0  0  0
  6  5  1  0  0  0  0
  7  3  2  0  0  0  0
  8  2  1  0  0  0  0
  9  8  1  0  0  0  0
 10  5  2  0  0  0  0
 11  7  1  0  0  0  0
 12  4  2  0  0  0  0
 13  9  1  0  0  0  0
 14 11  2  0  0  0  0
 15  9  2  0  0  0  0
 16  7  1  0  0  0  0
 17  1  1  0  0  0  0
 18 13  1  0  0  0  0
 19 21  1  0  0  0  0
 20 19  2  0  0  0  0
 21 18  1  0  0  0  0
 22 20  1  0  0  0  0
 23 26  1  0  0  0  0
 24 14  1  0  0  0  0
 25 23  2  0  0  0  0
 26 21  2  0  0  0  0
  4  6  1  0  0  0  0
 10 14  1  0  0  0  0
 20 25  1  0  0  0  0
M  END
>  <Code> (P7119692016)
P7119692016

>  <Number of H-Donors> (P7119692016)
2

>  <Number of H-Acceptors> (P7119692016)
4

>  <Number of Rotatable bonds> (P7119692016)
4

>  <CLogP> (P7119692016)
4.000000000000000e+000

>  <Number of Rings> (P7119692016)
3

>  <PSA> (P7119692016)
7.559999999999999e+001

$$$$

  -ISIS-  11102212342D

 35 38  0  0  0  0  0  0  0  0999 V2000
    6.6417   -5.6792    0.0000 C   0  0  0  0  0  0  0  0  0  0  0  0
    5.3042   -5.6792    0.0000 N   0  0  3  0  0  0  0  0  0  0  0  0
    6.3875   -6.4750    0.0000 C   0  0  0  0  0  0  0  0  0  0  0  0
    5.5667   -6.4750    0.0000 C   0  0  0  0  0  0  0  0  0  0  0  0
    5.9750   -5.2042    0.0000 C   0  0  3  0  0  0  0  0  0  0  0  0
    8.0375   -5.9875    0.0000 C   0  0  0  0  0  0  0  0  0  0  0  0
    8.8542   -5.8125    0.0000 O   0  0  0  0  0  0  0  0  0  0  0  0
    7.4292   -5.4292    0.0000 C   0  0  0  0  0  0  0  0  0  0  0  0
    7.9542   -6.8000    0.0000 C   0  0  0  0  0  0  0  0  0  0  0  0
    9.2667   -6.5292    0.0000 C   0  0  0  0  0  0  0  0  0  0  0  0
    5.9792   -4.3667    0.0000 C   0  0  0  0  0  0  0  0  0  0  0  0
    8.7125   -7.1292    0.0000 C   0  0  0  0  0  0  0  0  0  0  0  0
    4.5167   -5.4292    0.0000 C   0  0  0  0  0  0  0  0  0  0  0  0
    5.0792   -7.1417    0.0000 O   0  0  0  0  0  0  0  0  0  0  0  0
    5.2750   -3.9542    0.0000 C   0  0  0  0  0  0  0  0  0  0  0  0
    7.6042   -4.6167    0.0000 O   0  0  0  0  0  0  0  0  0  0  0  0
   10.0625   -6.7042    0.0000 C   0  0  0  0  0  0  0  0  0  0  0  0
    6.8750   -7.1417    0.0000 O   0  0  0  0  0  0  0  0  0  0  0  0
    3.9042   -5.9792    0.0000 C   0  0  0  0  0  0  0  0  0  0  0  0
    3.1167   -5.7292    0.0000 N   0  0  3  0  0  0  0  0  0  0  0  0
    5.2750   -3.1250    0.0000 C   0  0  0  0  0  0  0  0  0  0  0  0
    6.7042   -3.9667    0.0000 C   0  0  0  0  0  0  0  0  0  0  0  0
   10.6125   -6.0917    0.0000 O   0  0  0  0  0  0  0  0  0  0  0  0
    8.9542   -7.9167    0.0000 C   0  0  0  0  0  0  0  0  0  0  0  0
    4.5542   -2.7042    0.0000 O   0  0  0  0  0  0  0  0  0  0  0  0
    6.7167   -3.1292    0.0000 C   0  0  0  0  0  0  0  0  0  0  0  0
    9.7625   -8.0917    0.0000 C   0  0  0  0  0  0  0  0  0  0  0  0
   10.3167   -7.4875    0.0000 C   0  0  0  0  0  0  0  0  0  0  0  0
    2.5042   -6.2875    0.0000 C   0  0  0  0  0  0  0  0  0  0  0  0
    2.9542   -4.9167    0.0000 C   0  0  0  0  0  0  0  0  0  0  0  0
    6.0042   -2.7125    0.0000 C   0  0  0  0  0  0  0  0  0  0  0  0
   10.3667   -5.3000    0.0000 C   0  0  0  0  0  0  0  0  0  0  0  0
    3.8417   -3.1167    0.0000 C   0  0  0  0  0  0  0  0  0  0  0  0
    2.1750   -4.6542    0.0000 C   0  0  0  0  0  0  0  0  0  0  0  0
    1.7250   -6.0250    0.0000 C   0  0  0  0  0  0  0  0  0  0  0  0
  2  5  1  0  0  0  0
  3  1  2  0  0  0  0
  4  3  1  0  0  0  0
  5  1  1  0  0  0  0
  6  8  1  0  0  0  0
  7  6  1  0  0  0  0
  8  1  1  0  0  0  0
  9  6  2  0  0  0  0
 10  7  1  0  0  0  0
 11  5  1  0  0  0  0
 12  9  1  0  0  0  0
 13  2  1  0  0  0  0
 14  4  2  0  0  0  0
 15 11  1  0  0  0  0
 16  8  2  0  0  0  0
 17 10  1  0  0  0  0
 18  3  1  0  0  0  0
 19 13  1  0  0  0  0
 20 19  1  0  0  0  0
 21 15  2  0  0  0  0
 22 11  2  0  0  0  0
 23 17  1  0  0  0  0
 24 12  1  0  0  0  0
 25 21  1  0  0  0  0
 26 22  1  0  0  0  0
 27 24  2  0  0  0  0
 28 17  2  0  0  0  0
 29 20  1  0  0  0  0
 30 20  1  0  0  0  0
 31 26  2  0  0  0  0
 32 23  1  0  0  0  0
 33 25  1  0  0  0  0
 34 30  1  0  0  0  0
 35 29  1  0  0  0  0
  2  4  1  0  0  0  0
 10 12  2  0  0  0  0
 21 31  1  0  0  0  0
 27 28  1  0  0  0  0
M  END
>  <Code> (P7119642513)
P7119642513

>  <Number of H-Donors> (P7119642513)
1

>  <Number of H-Acceptors> (P7119642513)
6

>  <Number of Rotatable bonds> (P7119642513)
10

>  <CLogP> (P7119642513)
3.800000000000000e+000

>  <Number of Rings> (P7119642513)
4

>  <PSA> (P7119642513)
9.250000000000000e+001

$$$$

  -ISIS-  11102212342D

 28 31  0  0  0  0  0  0  0  0999 V2000
    0.6542   -0.6792    0.0000 C   0  0  0  0  0  0  0  0  0  0  0  0
    0.6542    0.1458    0.0000 C   0  0  0  0  0  0  0  0  0  0  0  0
    1.3667   -1.0917    0.0000 N   0  0  3  0  0  0  0  0  0  0  0  0
   -0.0625   -1.0917    0.0000 N   0  0  0  0  0  0  0  0  0  0  0  0
    2.0917    0.1333    0.0000 C   0  0  0  0  0  0  0  0  0  0  0  0
    2.0875   -0.6917    0.0000 C   0  0  0  0  0  0  0  0  0  0  0  0
   -0.0583    0.5625    0.0000 C   0  0  0  0  0  0  0  0  0  0  0  0
   -0.7750    0.1458    0.0000 N   0  0  3  0  0  0  0  0  0  0  0  0
   -0.7833   -0.6792    0.0000 C   0  0  0  0  0  0  0  0  0  0  0  0
    1.3750    0.5583    0.0000 C   0  0  0  0  0  0  0  0  0  0  0  0
    2.8125    0.5500    0.0000 C   0  0  0  0  0  0  0  0  0  0  0  0
    1.3625   -1.9250    0.0000 C   0  0  0  0  0  0  0  0  0  0  0  0
    2.8042   -1.1042    0.0000 N   0  0  0  0  0  0  0  0  0  0  0  0
   -1.4958    0.5708    0.0000 C   0  0  0  0  0  0  0  0  0  0  0  0
   -0.0583    1.3958    0.0000 O   0  0  0  0  0  0  0  0  0  0  0  0
   -1.4958   -1.0917    0.0000 C   0  0  0  0  0  0  0  0  0  0  0  0
    2.8125    1.3708    0.0000 O   0  0  0  0  0  0  0  0  0  0  0  0
    2.7750   -3.5792    0.0000 N   0  0  0  0  0  0  0  0  0  0  0  0
   -2.2000    0.1458    0.0000 C   0  0  0  0  0  0  0  0  0  0  0  0
   -2.2000   -0.6792    0.0000 C   0  0  0  0  0  0  0  0  0  0  0  0
    2.0667   -2.3417    0.0000 C   0  0  0  0  0  0  0  0  0  0  0  0
    3.5250    0.1333    0.0000 N   0  0  0  0  0  0  0  0  0  0  0  0
    2.0667   -3.1667    0.0000 C   0  0  0  0  0  0  0  0  0  0  0  0
    3.4917   -3.1750    0.0000 C   0  0  0  0  0  0  0  0  0  0  0  0
    2.7792   -1.9292    0.0000 C   0  0  0  0  0  0  0  0  0  0  0  0
    4.2417    0.5458    0.0000 C   0  0  0  0  0  0  0  0  0  0  0  0
    3.4917   -2.3417    0.0000 C   0  0  0  0  0  0  0  0  0  0  0  0
    4.9542    0.1333    0.0000 C   0  0  0  0  0  0  0  0  0  0  0  0
  2  1  2  0  0  0  0
  3  1  1  0  0  0  0
  4  1  1  0  0  0  0
  5  6  1  0  0  0  0
  6  3  1  0  0  0  0
  7  2  1  0  0  0  0
  8  9  1  0  0  0  0
  9  4  2  0  0  0  0
 10  2  1  0  0  0  0
 11  5  1  0  0  0  0
 12  3  1  0  0  0  0
 13  6  2  0  0  0  0
 14  8  1  0  0  0  0
 15  7  2  0  0  0  0
 16  9  1  0  0  0  0
 17 11  2  0  0  0  0
 18 23  1  0  0  0  0
 19 20  1  0  0  0  0
 20 16  2  0  0  0  0
 21 12  1  0  0  0  0
 22 11  1  0  0  0  0
 23 21  2  0  0  0  0
 24 27  1  0  0  0  0
 25 21  1  0  0  0  0
 26 22  1  0  0  0  0
 27 25  2  0  0  0  0
 28 26  1  0  0  0  0
  5 10  2  0  0  0  0
  7  8  1  0  0  0  0
 19 14  2  0  0  0  0
 18 24  2  0  0  0  0
M  END
>  <Code> (P7119642025)
P7119642025

>  <Number of H-Donors> (P7119642025)
2

>  <Number of H-Acceptors> (P7119642025)
5

>  <Number of Rotatable bonds> (P7119642025)
4

>  <CLogP> (P7119642025)
0.000000000000000e+000

>  <Number of Rings> (P7119642025)
4

>  <PSA> (P7119642025)
1.018000000000000e+002

$$$$

  -ISIS-  11102212342D

 35 39  0  0  0  0  0  0  0  0999 V2000
    2.3500   -0.3625    0.0000 C   0  0  0  0  0  0  0  0  0  0  0  0
    2.7750   -1.6417    0.0000 N   0  0  3  0  0  0  0  0  0  0  0  0
    1.1250    0.6583    0.0000 C   0  0  0  0  0  0  0  0  0  0  0  0
    3.1875   -0.3625    0.0000 C   0  0  0  0  0  0  0  0  0  0  0  0
    3.4375   -1.1542    0.0000 C   0  0  0  0  0  0  0  0  0  0  0  0
    2.1000   -1.1500    0.0000 C   0  0  3  0  0  0  0  0  0  0  0  0
    1.8667    0.2958    0.0000 C   0  0  0  0  0  0  0  0  0  0  0  0
    0.9792    1.4708    0.0000 N   0  0  3  0  0  0  0  0  0  0  0  0
   -0.1958    0.8458    0.0000 N   0  0  0  0  0  0  0  0  0  0  0  0
    0.4000    0.2708    0.0000 C   0  0  0  0  0  0  0  0  0  0  0  0
    0.1625    1.5833    0.0000 C   0  0  0  0  0  0  0  0  0  0  0  0
    1.3750   -1.5375    0.0000 C   0  0  0  0  0  0  0  0  0  0  0  0
    2.7750   -2.4667    0.0000 C   0  0  0  0  0  0  0  0  0  0  0  0
    1.4875    2.1208    0.0000 C   0  0  0  0  0  0  0  0  0  0  0  0
    3.4792   -3.7042    0.0000 N   0  0  3  0  0  0  0  0  0  0  0  0
    4.2250   -1.4125    0.0000 O   0  0  0  0  0  0  0  0  0  0  0  0
   -0.1458    2.3458    0.0000 C   0  0  0  0  0  0  0  0  0  0  0  0
    2.1917    1.0458    0.0000 O   0  0  0  0  0  0  0  0  0  0  0  0
    1.3417   -2.3625    0.0000 C   0  0  0  0  0  0  0  0  0  0  0  0
    3.6667    0.2958    0.0000 O   0  0  0  0  0  0  0  0  0  0  0  0
    1.1750    2.8958    0.0000 C   0  0  0  0  0  0  0  0  0  0  0  0
    0.3500    3.0000    0.0000 C   0  0  0  0  0  0  0  0  0  0  0  0
    3.4875   -2.8792    0.0000 C   0  0  0  0  0  0  0  0  0  0  0  0
    3.4667   -5.3625    0.0000 O   0  0  0  0  0  0  0  0  0  0  0  0
    0.2792   -0.5417    0.0000 C   0  0  0  0  0  0  0  0  0  0  0  0
    0.6125   -2.7500    0.0000 C   0  0  0  0  0  0  0  0  0  0  0  0
    0.6750   -1.1000    0.0000 C   0  0  0  0  0  0  0  0  0  0  0  0
    0.5750   -3.5667    0.0000 O   0  0  0  0  0  0  0  0  0  0  0  0
    4.1875   -4.1250    0.0000 C   0  0  0  0  0  0  0  0  0  0  0  0
    2.7625   -4.1167    0.0000 C   0  0  0  0  0  0  0  0  0  0  0  0
   -0.0583   -1.4875    0.0000 C   0  0  0  0  0  0  0  0  0  0  0  0
    4.1875   -4.9500    0.0000 C   0  0  0  0  0  0  0  0  0  0  0  0
    2.7500   -4.9500    0.0000 C   0  0  0  0  0  0  0  0  0  0  0  0
   -0.0750   -2.3125    0.0000 C   0  0  0  0  0  0  0  0  0  0  0  0
   -0.1458   -3.9542    0.0000 C   0  0  0  0  0  0  0  0  0  0  0  0
  2  6  1  0  0  0  0
  3  7  1  0  0  0  0
  4  1  2  0  0  0  0
  5  4  1  0  0  0  0
  6  1  1  0  0  0  0
  7  1  1  0  0  0  0
  8  3  1  0  0  0  0
  9 10  1  0  0  0  0
 10  3  2  0  0  0  0
 11  8  1  0  0  0  0
 12  6  1  0  0  0  0
 13  2  1  0  0  0  0
 14  8  1  0  0  0  0
 15 23  1  0  0  0  0
 16  5  2  0  0  0  0
 17 11  1  0  0  0  0
 18  7  2  0  0  0  0
 19 12  1  0  0  0  0
 20  4  1  0  0  0  0
 21 14  2  0  0  0  0
 22 21  1  0  0  0  0
 23 13  1  0  0  0  0
 24 33  1  0  0  0  0
 25 10  1  0  0  0  0
 26 19  2  0  0  0  0
 27 12  2  0  0  0  0
 28 26  1  0  0  0  0
 29 15  1  0  0  0  0
 30 15  1  0  0  0  0
 31 27  1  0  0  0  0
 32 29  1  0  0  0  0
 33 30  1  0  0  0  0
 34 31  2  0  0  0  0
 35 28  1  0  0  0  0
  5  2  1  0  0  0  0
 11  9  2  0  0  0  0
 26 34  1  0  0  0  0
 22 17  2  0  0  0  0
 24 32  1  0  0  0  0
M  END
>  <Code> (P7119641222)
P7119641222

>  <Number of H-Donors> (P7119641222)
1

>  <Number of H-Acceptors> (P7119641222)
7

>  <Number of Rotatable bonds> (P7119641222)
7

>  <CLogP> (P7119641222)
1.600000000000000e+000

>  <Number of Rings> (P7119641222)
5

>  <PSA> (P7119641222)
9.660000000000002e+001

$$$$

  -ISIS-  11102212342D

 30 33  0  0  0  0  0  0  0  0999 V2000
    6.3542   -4.4542    0.0000 C   0  0  0  0  0  0  0  0  0  0  0  0
    5.0167   -4.4542    0.0000 N   0  0  3  0  0  0  0  0  0  0  0  0
    7.7542   -4.7667    0.0000 C   0  0  0  0  0  0  0  0  0  0  0  0
    6.1042   -5.2542    0.0000 C   0  0  0  0  0  0  0  0  0  0  0  0
    5.6875   -3.9875    0.0000 C   0  0  3  0  0  0  0  0  0  0  0  0
    5.2792   -5.2542    0.0000 C   0  0  0  0  0  0  0  0  0  0  0  0
    7.1417   -4.2167    0.0000 C   0  0  0  0  0  0  0  0  0  0  0  0
    8.5750   -4.5917    0.0000 N   0  0  3  0  0  0  0  0  0  0  0  0
    8.4292   -5.9167    0.0000 N   0  0  0  0  0  0  0  0  0  0  0  0
    7.6750   -5.5792    0.0000 C   0  0  0  0  0  0  0  0  0  0  0  0
    5.6917   -3.1500    0.0000 C   0  0  0  0  0  0  0  0  0  0  0  0
    8.9792   -5.3042    0.0000 C   0  0  0  0  0  0  0  0  0  0  0  0
    5.0792   -2.5917    0.0000 O   0  0  0  0  0  0  0  0  0  0  0  0
    6.4042   -2.7292    0.0000 C   0  0  0  0  0  0  0  0  0  0  0  0
    4.2292   -4.2167    0.0000 C   0  0  0  0  0  0  0  0  0  0  0  0
    5.4042   -1.8500    0.0000 C   0  0  0  0  0  0  0  0  0  0  0  0
    6.2292   -1.9167    0.0000 C   0  0  0  0  0  0  0  0  0  0  0  0
    8.9792   -3.8792    0.0000 C   0  0  0  0  0  0  0  0  0  0  0  0
    4.7917   -5.9292    0.0000 O   0  0  0  0  0  0  0  0  0  0  0  0
    9.7917   -5.3042    0.0000 C   0  0  0  0  0  0  0  0  0  0  0  0
    7.3250   -3.4042    0.0000 O   0  0  0  0  0  0  0  0  0  0  0  0
    6.5875   -5.9292    0.0000 O   0  0  0  0  0  0  0  0  0  0  0  0
    9.8042   -3.8875    0.0000 C   0  0  0  0  0  0  0  0  0  0  0  0
   10.2042   -4.5917    0.0000 C   0  0  0  0  0  0  0  0  0  0  0  0
    3.6167   -4.7667    0.0000 C   0  0  0  0  0  0  0  0  0  0  0  0
    2.8250   -4.5042    0.0000 N   0  0  3  0  0  0  0  0  0  0  0  0
    7.2542   -6.2917    0.0000 C   0  0  0  0  0  0  0  0  0  0  0  0
    4.9792   -1.1292    0.0000 C   0  0  0  0  0  0  0  0  0  0  0  0
    2.6542   -3.7042    0.0000 C   0  0  0  0  0  0  0  0  0  0  0  0
    2.2167   -5.0667    0.0000 C   0  0  0  0  0  0  0  0  0  0  0  0
  2  5  1  0  0  0  0
  3  7  1  0  0  0  0
  4  1  2  0  0  0  0
  5  1  1  0  0  0  0
  6  4  1  0  0  0  0
  7  1  1  0  0  0  0
  8  3  1  0  0  0  0
  9 10  1  0  0  0  0
 10  3  2  0  0  0  0
 11  5  1  0  0  0  0
 12  8  1  0  0  0  0
 13 11  1  0  0  0  0
 14 11  2  0  0  0  0
 15  2  1  0  0  0  0
 16 13  1  0  0  0  0
 17 14  1  0  0  0  0
 18  8  1  0  0  0  0
 19  6  2  0  0  0  0
 20 12  1  0  0  0  0
 21  7  2  0  0  0  0
 22  4  1  0  0  0  0
 23 18  2  0  0  0  0
 24 23  1  0  0  0  0
 25 15  1  0  0  0  0
 26 25  1  0  0  0  0
 27 10  1  0  0  0  0
 28 16  1  0  0  0  0
 29 26  1  0  0  0  0
 30 26  1  0  0  0  0
  2  6  1  0  0  0  0
  9 12  2  0  0  0  0
 17 16  2  0  0  0  0
 20 24  2  0  0  0  0
M  END
>  <Code> (P7119641205)
P7119641205

>  <Number of H-Donors> (P7119641205)
1

>  <Number of H-Acceptors> (P7119641205)
5

>  <Number of Rotatable bonds> (P7119641205)
6

>  <CLogP> (P7119641205)
1.400000000000000e+000

>  <Number of Rings> (P7119641205)
4

>  <PSA> (P7119641205)
9.129999999999998e+001

$$$$

  -ISIS-  11102212342D

 34 38  0  0  0  0  0  0  0  0999 V2000
    6.9625   -4.4792    0.0000 C   0  0  0  0  0  0  0  0  0  0  0  0
    8.3500   -4.7750    0.0000 C   0  0  0  0  0  0  0  0  0  0  0  0
    5.6292   -4.4792    0.0000 N   0  0  3  0  0  0  0  0  0  0  0  0
    6.7042   -5.2750    0.0000 C   0  0  0  0  0  0  0  0  0  0  0  0
    5.8875   -5.2750    0.0000 C   0  0  0  0  0  0  0  0  0  0  0  0
    7.7417   -4.2292    0.0000 C   0  0  0  0  0  0  0  0  0  0  0  0
    9.1667   -4.6042    0.0000 N   0  0  3  0  0  0  0  0  0  0  0  0
    6.2917   -4.0042    0.0000 C   0  0  3  0  0  0  0  0  0  0  0  0
    9.0250   -5.9292    0.0000 N   0  0  0  0  0  0  0  0  0  0  0  0
    8.2667   -5.5917    0.0000 C   0  0  0  0  0  0  0  0  0  0  0  0
    9.5667   -5.3125    0.0000 C   0  0  0  0  0  0  0  0  0  0  0  0
    1.6167   -5.6167    0.0000 N   0  0  0  0  0  0  0  0  0  0  0  0
    2.8375   -5.0792    0.0000 N   0  0  3  0  0  0  0  0  0  0  0  0
    2.0292   -4.9042    0.0000 C   0  0  0  0  0  0  0  0  0  0  0  0
    6.3042   -3.1750    0.0000 C   0  0  0  0  0  0  0  0  0  0  0  0
    9.5667   -3.9000    0.0000 C   0  0  0  0  0  0  0  0  0  0  0  0
    5.4042   -5.9417    0.0000 O   0  0  0  0  0  0  0  0  0  0  0  0
   10.3792   -5.3167    0.0000 C   0  0  0  0  0  0  0  0  0  0  0  0
    7.9167   -3.4250    0.0000 O   0  0  0  0  0  0  0  0  0  0  0  0
    2.1750   -6.2375    0.0000 C   0  0  0  0  0  0  0  0  0  0  0  0
    2.9292   -5.8917    0.0000 C   0  0  0  0  0  0  0  0  0  0  0  0
    7.1917   -5.9417    0.0000 O   0  0  0  0  0  0  0  0  0  0  0  0
    4.8417   -4.2292    0.0000 C   0  0  0  0  0  0  0  0  0  0  0  0
   10.3917   -3.9000    0.0000 C   0  0  0  0  0  0  0  0  0  0  0  0
   10.8000   -4.6125    0.0000 C   0  0  0  0  0  0  0  0  0  0  0  0
    5.5917   -2.7542    0.0000 C   0  0  0  0  0  0  0  0  0  0  0  0
    7.0167   -2.7667    0.0000 C   0  0  0  0  0  0  0  0  0  0  0  0
    4.2292   -4.7750    0.0000 C   0  0  0  0  0  0  0  0  0  0  0  0
    7.8542   -6.3042    0.0000 C   0  0  0  0  0  0  0  0  0  0  0  0
    6.3167   -1.5167    0.0000 C   0  0  0  0  0  0  0  0  0  0  0  0
    7.0292   -1.9375    0.0000 C   0  0  0  0  0  0  0  0  0  0  0  0
    5.5917   -1.9250    0.0000 C   0  0  0  0  0  0  0  0  0  0  0  0
    3.4417   -4.5292    0.0000 C   0  0  0  0  0  0  0  0  0  0  0  0
    6.3167   -0.6875    0.0000 F   0  0  0  0  0  0  0  0  0  0  0  0
  2  6  1  0  0  0  0
  3  8  1  0  0  0  0
  4  1  2  0  0  0  0
  5  4  1  0  0  0  0
  6  1  1  0  0  0  0
  7  2  1  0  0  0  0
  8  1  1  0  0  0  0
  9 10  1  0  0  0  0
 10  2  2  0  0  0  0
 11  7  1  0  0  0  0
 12 14  2  0  0  0  0
 13 33  1  0  0  0  0
 14 13  1  0  0  0  0
 15  8  1  0  0  0  0
 16  7  1  0  0  0  0
 17  5  2  0  0  0  0
 18 11  1  0  0  0  0
 19  6  2  0  0  0  0
 20 21  2  0  0  0  0
 21 13  1  0  0  0  0
 22  4  1  0  0  0  0
 23  3  1  0  0  0  0
 24 16  2  0  0  0  0
 25 24  1  0  0  0  0
 26 15  1  0  0  0  0
 27 15  2  0  0  0  0
 28 23  1  0  0  0  0
 29 10  1  0  0  0  0
 30 31  2  0  0  0  0
 31 27  1  0  0  0  0
 32 26  2  0  0  0  0
 33 28  1  0  0  0  0
 34 30  1  0  0  0  0
  3  5  1  0  0  0  0
 30 32  1  0  0  0  0
  9 11  2  0  0  0  0
 18 25  2  0  0  0  0
 12 20  1  0  0  0  0
M  END
>  <Code> (P7119641191)
P7119641191

>  <Number of H-Donors> (P7119641191)
1

>  <Number of H-Acceptors> (P7119641191)
5

>  <Number of Rotatable bonds> (P7119641191)
7

>  <CLogP> (P7119641191)
1.800000000000000e+000

>  <Number of Rings> (P7119641191)
5

>  <PSA> (P7119641191)
9.269999999999999e+001

$$$$

  -ISIS-  11102212342D

 36 39  0  0  0  0  0  0  0  0999 V2000
    6.8042   -5.2417    0.0000 C   0  0  0  0  0  0  0  0  0  0  0  0
    8.2042   -5.5417    0.0000 C   0  0  0  0  0  0  0  0  0  0  0  0
    5.4750   -5.2417    0.0000 N   0  0  3  0  0  0  0  0  0  0  0  0
    6.5625   -6.0375    0.0000 C   0  0  0  0  0  0  0  0  0  0  0  0
    5.7292   -6.0375    0.0000 C   0  0  0  0  0  0  0  0  0  0  0  0
    7.5917   -4.9917    0.0000 C   0  0  0  0  0  0  0  0  0  0  0  0
    9.0125   -5.3667    0.0000 N   0  0  3  0  0  0  0  0  0  0  0  0
    6.1417   -4.7625    0.0000 C   0  0  3  0  0  0  0  0  0  0  0  0
    8.8792   -6.6875    0.0000 N   0  0  0  0  0  0  0  0  0  0  0  0
    8.1250   -6.3542    0.0000 C   0  0  0  0  0  0  0  0  0  0  0  0
    9.4167   -6.0792    0.0000 C   0  0  0  0  0  0  0  0  0  0  0  0
    6.1500   -3.9375    0.0000 C   0  0  0  0  0  0  0  0  0  0  0  0
    9.4167   -4.6667    0.0000 C   0  0  0  0  0  0  0  0  0  0  0  0
    5.2417   -6.7000    0.0000 O   0  0  0  0  0  0  0  0  0  0  0  0
   10.2375   -6.0792    0.0000 C   0  0  0  0  0  0  0  0  0  0  0  0
    7.7667   -4.1792    0.0000 O   0  0  0  0  0  0  0  0  0  0  0  0
    6.1667   -2.2750    0.0000 C   0  0  0  0  0  0  0  0  0  0  0  0
    7.0375   -6.7000    0.0000 O   0  0  0  0  0  0  0  0  0  0  0  0
    4.6917   -4.9917    0.0000 C   0  0  0  0  0  0  0  0  0  0  0  0
   10.2375   -4.6667    0.0000 C   0  0  0  0  0  0  0  0  0  0  0  0
   10.6417   -5.3792    0.0000 C   0  0  0  0  0  0  0  0  0  0  0  0
    6.8750   -3.5250    0.0000 C   0  0  0  0  0  0  0  0  0  0  0  0
    5.4375   -3.5167    0.0000 C   0  0  0  0  0  0  0  0  0  0  0  0
    5.4417   -2.6917    0.0000 C   0  0  0  0  0  0  0  0  0  0  0  0
    6.8792   -2.7000    0.0000 C   0  0  0  0  0  0  0  0  0  0  0  0
    4.0792   -5.5417    0.0000 C   0  0  0  0  0  0  0  0  0  0  0  0
    7.7042   -7.0667    0.0000 C   0  0  0  0  0  0  0  0  0  0  0  0
    2.6875   -5.8417    0.0000 N   0  0  3  0  0  0  0  0  0  0  0  0
    6.1667   -1.4542    0.0000 C   0  0  3  0  0  0  0  0  0  0  0  0
    3.2917   -5.2875    0.0000 C   0  0  0  0  0  0  0  0  0  0  0  0
    2.8542   -6.6417    0.0000 C   0  0  0  0  0  0  0  0  0  0  0  0
    1.9000   -5.5917    0.0000 C   0  0  0  0  0  0  0  0  0  0  0  0
    6.8875   -1.0417    0.0000 C   0  0  0  0  0  0  0  0  0  0  0  0
    5.4625   -1.0375    0.0000 C   0  0  0  0  0  0  0  0  0  0  0  0
    3.6417   -6.9042    0.0000 C   0  0  0  0  0  0  0  0  0  0  0  0
    1.7250   -4.7792    0.0000 C   0  0  0  0  0  0  0  0  0  0  0  0
  2  6  1  0  0  0  0
  3  8  1  0  0  0  0
  4  1  2  0  0  0  0
  5  4  1  0  0  0  0
  6  1  1  0  0  0  0
  7  2  1  0  0  0  0
  8  1  1  0  0  0  0
  9 10  1  0  0  0  0
 10  2  2  0  0  0  0
 11  7  1  0  0  0  0
 12  8  1  0  0  0  0
 13  7  1  0  0  0  0
 14  5  2  0  0  0  0
 15 11  1  0  0  0  0
 16  6  2  0  0  0  0
 17 24  1  0  0  0  0
 18  4  1  0  0  0  0
 19  3  1  0  0  0  0
 20 13  2  0  0  0  0
 21 20  1  0  0  0  0
 22 12  2  0  0  0  0
 23 12  1  0  0  0  0
 24 23  2  0  0  0  0
 25 22  1  0  0  0  0
 26 19  1  0  0  0  0
 27 10  1  0  0  0  0
 28 30  1  0  0  0  0
 29 17  1  0  0  0  0
 30 26  1  0  0  0  0
 31 28  1  0  0  0  0
 32 28  1  0  0  0  0
 33 29  1  0  0  0  0
 34 29  1  0  0  0  0
 35 31  1  0  0  0  0
 36 32  1  0  0  0  0
  3  5  1  0  0  0  0
 25 17  2  0  0  0  0
  9 11  2  0  0  0  0
 15 21  2  0  0  0  0
M  END
>  <Code> (P7119641186)
P7119641186

>  <Number of H-Donors> (P7119641186)
1

>  <Number of H-Acceptors> (P7119641186)
5

>  <Number of Rotatable bonds> (P7119641186)
10

>  <CLogP> (P7119641186)
3.900000000000000e+000

>  <Number of Rings> (P7119641186)
4

>  <PSA> (P7119641186)
7.809999999999999e+001

$$$$

  -ISIS-  11102212342D

 28 30  0  0  0  0  0  0  0  0999 V2000
    7.3167   -4.2375    0.0000 C   0  0  0  0  0  0  0  0  0  0  0  0
    5.9792   -4.2375    0.0000 N   0  0  3  0  0  0  0  0  0  0  0  0
    7.0542   -5.0292    0.0000 C   0  0  0  0  0  0  0  0  0  0  0  0
    6.6417   -3.7542    0.0000 C   0  0  3  0  0  0  0  0  0  0  0  0
    8.7042   -4.5292    0.0000 C   0  0  0  0  0  0  0  0  0  0  0  0
    6.2375   -5.0292    0.0000 C   0  0  0  0  0  0  0  0  0  0  0  0
    8.1000   -3.9792    0.0000 C   0  0  0  0  0  0  0  0  0  0  0  0
    6.6542   -2.9167    0.0000 C   0  0  0  0  0  0  0  0  0  0  0  0
    9.5167   -4.3542    0.0000 C   0  0  0  0  0  0  0  0  0  0  0  0
    9.9292   -5.0750    0.0000 N   0  0  0  0  0  0  0  0  0  0  0  0
    8.6250   -5.3500    0.0000 S   0  0  0  0  0  0  0  0  0  0  0  0
    9.3750   -5.6792    0.0000 C   0  0  0  0  0  0  0  0  0  0  0  0
    6.0417   -2.3792    0.0000 O   0  0  0  0  0  0  0  0  0  0  0  0
    7.3542   -2.5042    0.0000 C   0  0  0  0  0  0  0  0  0  0  0  0
    6.3625   -1.6292    0.0000 C   0  0  0  0  0  0  0  0  0  0  0  0
    7.1792   -1.6917    0.0000 C   0  0  0  0  0  0  0  0  0  0  0  0
    5.7542   -5.6917    0.0000 O   0  0  0  0  0  0  0  0  0  0  0  0
    8.2750   -3.1750    0.0000 O   0  0  0  0  0  0  0  0  0  0  0  0
    7.5417   -5.6917    0.0000 O   0  0  0  0  0  0  0  0  0  0  0  0
    5.1917   -3.9792    0.0000 C   0  0  0  0  0  0  0  0  0  0  0  0
    4.5792   -4.5292    0.0000 C   0  0  0  0  0  0  0  0  0  0  0  0
    3.1917   -4.8292    0.0000 N   0  0  3  0  0  0  0  0  0  0  0  0
    9.8417   -3.6042    0.0000 C   0  0  0  0  0  0  0  0  0  0  0  0
    9.5500   -6.4792    0.0000 C   0  0  0  0  0  0  0  0  0  0  0  0
    3.7917   -4.2792    0.0000 C   0  0  0  0  0  0  0  0  0  0  0  0
    5.9417   -0.9167    0.0000 C   0  0  0  0  0  0  0  0  0  0  0  0
    3.3542   -5.6375    0.0000 C   0  0  0  0  0  0  0  0  0  0  0  0
    2.3917   -4.5750    0.0000 C   0  0  0  0  0  0  0  0  0  0  0  0
  2  4  1  0  0  0  0
  3  1  2  0  0  0  0
  4  1  1  0  0  0  0
  5  7  1  0  0  0  0
  6  3  1  0  0  0  0
  7  1  1  0  0  0  0
  8  4  1  0  0  0  0
  9  5  2  0  0  0  0
 10  9  1  0  0  0  0
 11  5  1  0  0  0  0
 12 11  1  0  0  0  0
 13  8  1  0  0  0  0
 14  8  2  0  0  0  0
 15 13  1  0  0  0  0
 16 14  1  0  0  0  0
 17  6  2  0  0  0  0
 18  7  2  0  0  0  0
 19  3  1  0  0  0  0
 20  2  1  0  0  0  0
 21 20  1  0  0  0  0
 22 25  1  0  0  0  0
 23  9  1  0  0  0  0
 24 12  1  0  0  0  0
 25 21  1  0  0  0  0
 26 15  1  0  0  0  0
 27 22  1  0  0  0  0
 28 22  1  0  0  0  0
  2  6  1  0  0  0  0
 12 10  2  0  0  0  0
 16 15  2  0  0  0  0
M  END
>  <Code> (P7119641167)
P7119641167

>  <Number of H-Donors> (P7119641167)
1

>  <Number of H-Acceptors> (P7119641167)
5

>  <Number of Rotatable bonds> (P7119641167)
7

>  <CLogP> (P7119641167)
1.300000000000000e+000

>  <Number of Rings> (P7119641167)
3

>  <PSA> (P7119641167)
1.151000000000000e+002

$$$$

  -ISIS-  11102212342D

 32 36  0  0  0  0  0  0  0  0999 V2000
    6.9000   -4.1667    0.0000 C   0  0  0  0  0  0  0  0  0  0  0  0
    5.5667   -4.1667    0.0000 N   0  0  3  0  0  0  0  0  0  0  0  0
    6.6417   -4.9625    0.0000 C   0  0  0  0  0  0  0  0  0  0  0  0
    5.8167   -4.9625    0.0000 C   0  0  0  0  0  0  0  0  0  0  0  0
    6.2292   -3.6917    0.0000 C   0  0  3  0  0  0  0  0  0  0  0  0
    8.3042   -4.4667    0.0000 C   0  0  0  0  0  0  0  0  0  0  0  0
    7.6875   -3.9167    0.0000 C   0  0  0  0  0  0  0  0  0  0  0  0
    9.1125   -4.2917    0.0000 O   0  0  0  0  0  0  0  0  0  0  0  0
    8.2167   -5.2875    0.0000 C   0  0  0  0  0  0  0  0  0  0  0  0
    4.7750   -3.9167    0.0000 C   0  0  0  0  0  0  0  0  0  0  0  0
    9.5167   -5.0042    0.0000 C   0  0  0  0  0  0  0  0  0  0  0  0
    8.9750   -5.6167    0.0000 C   0  0  0  0  0  0  0  0  0  0  0  0
    6.2417   -2.8625    0.0000 C   0  0  0  0  0  0  0  0  0  0  0  0
    3.3667   -4.2167    0.0000 N   0  0  3  0  0  0  0  0  0  0  0  0
    5.3375   -5.6292    0.0000 O   0  0  0  0  0  0  0  0  0  0  0  0
    5.5292   -2.4500    0.0000 N   0  0  0  0  0  0  0  0  0  0  0  0
    7.8625   -3.1125    0.0000 O   0  0  0  0  0  0  0  0  0  0  0  0
    7.1292   -5.6292    0.0000 O   0  0  0  0  0  0  0  0  0  0  0  0
    4.1625   -4.4750    0.0000 C   0  0  0  0  0  0  0  0  0  0  0  0
    1.8042   -3.7042    0.0000 O   0  0  0  0  0  0  0  0  0  0  0  0
    3.2125   -3.4042    0.0000 C   0  0  0  0  0  0  0  0  0  0  0  0
    2.7667   -4.7750    0.0000 C   0  0  0  0  0  0  0  0  0  0  0  0
   10.3292   -5.1750    0.0000 C   0  0  0  0  0  0  0  0  0  0  0  0
    9.2292   -6.4000    0.0000 C   0  0  0  0  0  0  0  0  0  0  0  0
    5.5292   -1.6167    0.0000 C   0  0  0  0  0  0  0  0  0  0  0  0
    1.9792   -4.5042    0.0000 C   0  0  0  0  0  0  0  0  0  0  0  0
    2.4292   -3.1542    0.0000 C   0  0  0  0  0  0  0  0  0  0  0  0
    6.9542   -2.4542    0.0000 C   0  0  0  0  0  0  0  0  0  0  0  0
    6.2542   -1.2125    0.0000 C   0  0  0  0  0  0  0  0  0  0  0  0
   10.5792   -5.9417    0.0000 C   0  0  0  0  0  0  0  0  0  0  0  0
   10.0292   -6.5667    0.0000 C   0  0  0  0  0  0  0  0  0  0  0  0
    6.9667   -1.6292    0.0000 C   0  0  0  0  0  0  0  0  0  0  0  0
  2  5  1  0  0  0  0
  3  1  2  0  0  0  0
  4  3  1  0  0  0  0
  5  1  1  0  0  0  0
  6  7  1  0  0  0  0
  7  1  1  0  0  0  0
  8  6  1  0  0  0  0
  9  6  2  0  0  0  0
 10  2  1  0  0  0  0
 11  8  1  0  0  0  0
 12  9  1  0  0  0  0
 13  5  1  0  0  0  0
 14 19  1  0  0  0  0
 15  4  2  0  0  0  0
 16 13  1  0  0  0  0
 17  7  2  0  0  0  0
 18  3  1  0  0  0  0
 19 10  1  0  0  0  0
 20 26  1  0  0  0  0
 21 14  1  0  0  0  0
 22 14  1  0  0  0  0
 23 11  1  0  0  0  0
 24 12  1  0  0  0  0
 25 16  2  0  0  0  0
 26 22  1  0  0  0  0
 27 21  1  0  0  0  0
 28 13  2  0  0  0  0
 29 32  2  0  0  0  0
 30 23  2  0  0  0  0
 31 24  2  0  0  0  0
 32 28  1  0  0  0  0
  2  4  1  0  0  0  0
 11 12  2  0  0  0  0
 29 25  1  0  0  0  0
 31 30  1  0  0  0  0
 27 20  1  0  0  0  0
M  END
>  <Code> (P7119640907)
P7119640907

>  <Number of H-Donors> (P7119640907)
1

>  <Number of H-Acceptors> (P7119640907)
6

>  <Number of Rotatable bonds> (P7119640907)
6

>  <CLogP> (P7119640907)
2.000000000000000e+000

>  <Number of Rings> (P7119640907)
5

>  <PSA> (P7119640907)
9.610000000000001e+001

$$$$

  -ISIS-  11102212342D

 32 35  0  0  0  0  0  0  0  0999 V2000
    1.7000   -0.9250    0.0000 C   0  0  0  0  0  0  0  0  0  0  0  0
    0.4667    0.0958    0.0000 C   0  0  0  0  0  0  0  0  0  0  0  0
    2.1167   -2.2042    0.0000 N   0  0  3  0  0  0  0  0  0  0  0  0
    2.5292   -0.9250    0.0000 C   0  0  0  0  0  0  0  0  0  0  0  0
    2.7875   -1.7167    0.0000 C   0  0  0  0  0  0  0  0  0  0  0  0
    1.2125   -0.2625    0.0000 C   0  0  0  0  0  0  0  0  0  0  0  0
    0.3250    0.9083    0.0000 N   0  0  3  0  0  0  0  0  0  0  0  0
    1.4500   -1.7125    0.0000 C   0  0  3  0  0  0  0  0  0  0  0  0
   -0.8458    0.2833    0.0000 N   0  0  0  0  0  0  0  0  0  0  0  0
   -0.2500   -0.2875    0.0000 C   0  0  0  0  0  0  0  0  0  0  0  0
   -0.4875    1.0208    0.0000 C   0  0  0  0  0  0  0  0  0  0  0  0
    0.7167   -2.1000    0.0000 C   0  0  0  0  0  0  0  0  0  0  0  0
    0.8375    1.5583    0.0000 C   0  0  0  0  0  0  0  0  0  0  0  0
    3.5667   -1.9750    0.0000 O   0  0  0  0  0  0  0  0  0  0  0  0
   -0.8000    1.7833    0.0000 C   0  0  0  0  0  0  0  0  0  0  0  0
    1.5500    0.4833    0.0000 O   0  0  0  0  0  0  0  0  0  0  0  0
    3.0125   -0.2625    0.0000 O   0  0  0  0  0  0  0  0  0  0  0  0
    2.1167   -3.0292    0.0000 C   0  0  0  0  0  0  0  0  0  0  0  0
    0.5250    2.3333    0.0000 C   0  0  0  0  0  0  0  0  0  0  0  0
   -0.2958    2.4375    0.0000 C   0  0  0  0  0  0  0  0  0  0  0  0
    0.6875   -2.9250    0.0000 C   0  0  0  0  0  0  0  0  0  0  0  0
    0.0250   -1.6625    0.0000 C   0  0  0  0  0  0  0  0  0  0  0  0
    2.8292   -3.4417    0.0000 C   0  0  0  0  0  0  0  0  0  0  0  0
   -0.3708   -1.1042    0.0000 C   0  0  0  0  0  0  0  0  0  0  0  0
   -0.7333   -2.8750    0.0000 C   0  0  0  0  0  0  0  0  0  0  0  0
    3.5417   -4.6792    0.0000 N   0  0  3  0  0  0  0  0  0  0  0  0
   -0.7083   -2.0500    0.0000 C   0  0  0  0  0  0  0  0  0  0  0  0
   -0.0375   -3.3125    0.0000 C   0  0  0  0  0  0  0  0  0  0  0  0
   -1.4583   -3.2625    0.0000 Cl  0  0  0  0  0  0  0  0  0  0  0  0
    2.8292   -4.2667    0.0000 C   0  0  0  0  0  0  0  0  0  0  0  0
    4.2625   -4.2542    0.0000 C   0  0  0  0  0  0  0  0  0  0  0  0
    3.5417   -5.4917    0.0000 C   0  0  0  0  0  0  0  0  0  0  0  0
  2  6  1  0  0  0  0
  3  8  1  0  0  0  0
  4  1  2  0  0  0  0
  5  4  1  0  0  0  0
  6  1  1  0  0  0  0
  7  2  1  0  0  0  0
  8  1  1  0  0  0  0
  9 10  1  0  0  0  0
 10  2  2  0  0  0  0
 11  7  1  0  0  0  0
 12  8  1  0  0  0  0
 13  7  1  0  0  0  0
 14  5  2  0  0  0  0
 15 11  1  0  0  0  0
 16  6  2  0  0  0  0
 17  4  1  0  0  0  0
 18  3  1  0  0  0  0
 19 13  2  0  0  0  0
 20 19  1  0  0  0  0
 21 12  1  0  0  0  0
 22 12  2  0  0  0  0
 23 18  1  0  0  0  0
 24 10  1  0  0  0  0
 25 27  2  0  0  0  0
 26 30  1  0  0  0  0
 27 22  1  0  0  0  0
 28 21  2  0  0  0  0
 29 25  1  0  0  0  0
 30 23  1  0  0  0  0
 31 26  1  0  0  0  0
 32 26  1  0  0  0  0
  5  3  1  0  0  0  0
 28 25  1  0  0  0  0
 11  9  2  0  0  0  0
 20 15  2  0  0  0  0
M  END
>  <Code> (P7119640803)
P7119640803

>  <Number of H-Donors> (P7119640803)
1

>  <Number of H-Acceptors> (P7119640803)
5

>  <Number of Rotatable bonds> (P7119640803)
7

>  <CLogP> (P7119640803)
2.700000000000000e+000

>  <Number of Rings> (P7119640803)
4

>  <PSA> (P7119640803)
7.809999999999999e+001

$$$$

  -ISIS-  11102212342D

 31 35  0  0  0  0  0  0  0  0999 V2000
    1.5250   -0.1542    0.0000 C   0  0  0  0  0  0  0  0  0  0  0  0
    1.5250    0.7083    0.0000 C   0  0  0  0  0  0  0  0  0  0  0  0
    2.2167   -0.5917    0.0000 N   0  0  3  0  0  0  0  0  0  0  0  0
    0.8000   -0.5917    0.0000 N   0  0  0  0  0  0  0  0  0  0  0  0
    2.9542    0.7083    0.0000 C   0  0  0  0  0  0  0  0  0  0  0  0
    2.9542   -0.1542    0.0000 C   0  0  0  0  0  0  0  0  0  0  0  0
    0.8000    1.0875    0.0000 C   0  0  0  0  0  0  0  0  0  0  0  0
    0.0625    0.7083    0.0000 N   0  0  3  0  0  0  0  0  0  0  0  0
    0.0625   -0.1542    0.0000 C   0  0  0  0  0  0  0  0  0  0  0  0
    2.2167    1.0875    0.0000 C   0  0  0  0  0  0  0  0  0  0  0  0
    3.7167    1.1375    0.0000 C   0  0  0  0  0  0  0  0  0  0  0  0
    2.1917   -1.4042    0.0000 C   0  0  0  0  0  0  0  0  0  0  0  0
    3.7167   -0.5917    0.0000 N   0  0  0  0  0  0  0  0  0  0  0  0
   -0.6500    1.0875    0.0000 C   0  0  0  0  0  0  0  0  0  0  0  0
    2.8792   -1.8167    0.0000 C   0  0  0  0  0  0  0  0  0  0  0  0
    4.4167    0.7083    0.0000 N   0  0  0  0  0  0  0  0  0  0  0  0
    0.8000    1.9583    0.0000 O   0  0  0  0  0  0  0  0  0  0  0  0
   -0.6500   -0.5417    0.0000 C   0  0  0  0  0  0  0  0  0  0  0  0
    2.9292   -2.6417    0.0000 O   0  0  0  0  0  0  0  0  0  0  0  0
    3.7167    1.9583    0.0000 O   0  0  0  0  0  0  0  0  0  0  0  0
    3.6167   -1.4792    0.0000 C   0  0  0  0  0  0  0  0  0  0  0  0
    3.7667   -2.8042    0.0000 C   0  0  0  0  0  0  0  0  0  0  0  0
   -1.3625    0.6750    0.0000 C   0  0  0  0  0  0  0  0  0  0  0  0
   -1.3625   -0.1417    0.0000 C   0  0  0  0  0  0  0  0  0  0  0  0
    4.1750   -2.0792    0.0000 C   0  0  0  0  0  0  0  0  0  0  0  0
    5.8167   -0.2042    0.0000 O   0  0  0  0  0  0  0  0  0  0  0  0
    5.1250    1.0750    0.0000 C   0  0  0  0  0  0  0  0  0  0  0  0
    5.8167    0.6125    0.0000 C   0  0  3  0  0  0  0  0  0  0  0  0
    6.6542   -0.4167    0.0000 C   0  0  0  0  0  0  0  0  0  0  0  0
    6.5792    0.9250    0.0000 C   0  0  0  0  0  0  0  0  0  0  0  0
    7.1167    0.2958    0.0000 C   0  0  0  0  0  0  0  0  0  0  0  0
  2  1  2  0  0  0  0
  3  1  1  0  0  0  0
  4  1  1  0  0  0  0
  5  6  1  0  0  0  0
  6  3  1  0  0  0  0
  7  2  1  0  0  0  0
  8  9  1  0  0  0  0
  9  4  2  0  0  0  0
 10  2  1  0  0  0  0
 11  5  1  0  0  0  0
 12  3  1  0  0  0  0
 13  6  2  0  0  0  0
 14  8  1  0  0  0  0
 15 12  1  0  0  0  0
 16 11  1  0  0  0  0
 17  7  2  0  0  0  0
 18  9  1  0  0  0  0
 19 15  1  0  0  0  0
 20 11  2  0  0  0  0
 21 15  2  0  0  0  0
 22 19  1  0  0  0  0
 23 24  1  0  0  0  0
 24 18  2  0  0  0  0
 25 21  1  0  0  0  0
 26 28  1  0  0  0  0
 27 16  1  0  0  0  0
 28 27  1  0  0  0  0
 29 26  1  0  0  0  0
 30 28  1  0  0  0  0
 31 30  1  0  0  0  0
 10  5  2  0  0  0  0
  8  7  1  0  0  0  0
 14 23  2  0  0  0  0
 25 22  2  0  0  0  0
 31 29  1  0  0  0  0
M  END
>  <Code> (P7119640541)
P7119640541

>  <Number of H-Donors> (P7119640541)
2

>  <Number of H-Acceptors> (P7119640541)
5

>  <Number of Rotatable bonds> (P7119640541)
5

>  <CLogP> (P7119640541)
4.000000000000000e-001

>  <Number of Rings> (P7119640541)
5

>  <PSA> (P7119640541)
1.112000000000000e+002

$$$$

  -ISIS-  11102212342D

 24 27  0  0  0  0  0  0  0  0999 V2000
    4.3875   -9.5375    0.0000 S   0  0  3  0  0  0  0  0  0  0  0  0
    4.2125  -12.8167    0.0000 N   0  0  3  0  0  0  0  0  0  0  0  0
    3.1375  -12.8167    0.0000 C   0  0  0  0  0  0  0  0  0  0  0  0
    4.3875  -12.0125    0.0000 C   0  0  0  0  0  0  0  0  0  0  0  0
    3.6750  -11.6000    0.0000 C   0  0  0  0  0  0  0  0  0  0  0  0
    2.9625  -12.0125    0.0000 C   0  0  0  0  0  0  0  0  0  0  0  0
    4.3875   -8.7125    0.0000 N   0  0  0  0  0  0  0  0  0  0  0  0
    4.3875  -10.3625    0.0000 C   0  0  0  0  0  0  0  0  0  0  0  0
    3.6750  -10.7750    0.0000 C   0  0  0  0  0  0  0  0  0  0  0  0
    5.1042  -11.6000    0.0000 C   0  0  0  0  0  0  0  0  0  0  0  0
    5.1042  -10.7750    0.0000 C   0  0  0  0  0  0  0  0  0  0  0  0
    3.5625   -9.5375    0.0000 O   0  0  0  0  0  0  0  0  0  0  0  0
    5.2125   -9.5375    0.0000 O   0  0  0  0  0  0  0  0  0  0  0  0
    5.1000   -8.3000    0.0000 C   0  0  0  0  0  0  0  0  0  0  0  0
    2.5250  -13.3667    0.0000 O   0  0  0  0  0  0  0  0  0  0  0  0
    5.1000   -7.4667    0.0000 N   0  0  0  0  0  0  0  0  0  0  0  0
    4.8250  -13.3667    0.0000 C   0  0  0  0  0  0  0  0  0  0  0  0
    2.2417  -11.6000    0.0000 C   0  0  0  0  0  0  0  0  0  0  0  0
    2.9625  -10.3625    0.0000 C   0  0  0  0  0  0  0  0  0  0  0  0
    2.2417  -10.7750    0.0000 C   0  0  0  0  0  0  0  0  0  0  0  0
    5.8125   -7.0542    0.0000 C   0  0  0  0  0  0  0  0  0  0  0  0
    5.8167   -8.7125    0.0000 C   0  0  0  0  0  0  0  0  0  0  0  0
    6.5292   -7.4667    0.0000 C   0  0  0  0  0  0  0  0  0  0  0  0
    6.5292   -8.3000    0.0000 C   0  0  0  0  0  0  0  0  0  0  0  0
  2  4  1  0  0  0  0
  3  6  1  0  0  0  0
  4 10  1  0  0  0  0
  5  9  1  0  0  0  0
  6  5  1  0  0  0  0
  7  1  1  0  0  0  0
  8  1  1  0  0  0  0
  9  8  2  0  0  0  0
 10 11  2  0  0  0  0
 11  8  1  0  0  0  0
 12  1  2  0  0  0  0
 13  1  2  0  0  0  0
 14  7  1  0  0  0  0
 15  3  2  0  0  0  0
 16 14  2  0  0  0  0
 17  2  1  0  0  0  0
 18 20  1  0  0  0  0
 19  9  1  0  0  0  0
 20 19  2  0  0  0  0
 21 16  1  0  0  0  0
 22 14  1  0  0  0  0
 23 24  1  0  0  0  0
 24 22  2  0  0  0  0
  5  4  2  0  0  0  0
 18  6  2  0  0  0  0
  3  2  1  0  0  0  0
 23 21  2  0  0  0  0
M  END
>  <Code> (P7119561849)
P7119561849

>  <Number of H-Donors> (P7119561849)
1

>  <Number of H-Acceptors> (P7119561849)
4

>  <Number of Rotatable bonds> (P7119561849)
3

>  <CLogP> (P7119561849)
1.800000000000000e+000

>  <Number of Rings> (P7119561849)
4

>  <PSA> (P7119561849)
8.780000000000000e+001

$$$$

  -ISIS-  11102212342D

 25 28  0  0  0  0  0  0  0  0999 V2000
    5.8000   -2.2750    0.0000 S   0  0  3  0  0  0  0  0  0  0  0  0
    2.8625   -3.7625    0.0000 N   0  0  3  0  0  0  0  0  0  0  0  0
    3.3042   -4.7542    0.0000 C   0  0  0  0  0  0  0  0  0  0  0  0
    3.5292   -3.2750    0.0000 C   0  0  0  0  0  0  0  0  0  0  0  0
    4.2000   -3.7625    0.0000 C   0  0  0  0  0  0  0  0  0  0  0  0
    4.1125   -4.5792    0.0000 C   0  0  0  0  0  0  0  0  0  0  0  0
    5.0375   -2.6042    0.0000 C   0  0  0  0  0  0  0  0  0  0  0  0
    4.9500   -3.4292    0.0000 C   0  0  0  0  0  0  0  0  0  0  0  0
    6.5625   -1.9417    0.0000 N   0  0  0  0  0  0  0  0  0  0  0  0
    3.6167   -2.4542    0.0000 C   0  0  0  0  0  0  0  0  0  0  0  0
    4.3667   -2.1167    0.0000 C   0  0  0  0  0  0  0  0  0  0  0  0
    6.1292   -3.0375    0.0000 O   0  0  0  0  0  0  0  0  0  0  0  0
    5.4667   -1.5125    0.0000 O   0  0  0  0  0  0  0  0  0  0  0  0
    7.2292   -2.4292    0.0000 C   0  0  0  0  0  0  0  0  0  0  0  0
    3.0542   -5.5542    0.0000 O   0  0  0  0  0  0  0  0  0  0  0  0
    7.9917   -2.1000    0.0000 C   0  0  0  0  0  0  0  0  0  0  0  0
    2.0625   -3.5417    0.0000 C   0  0  0  0  0  0  0  0  0  0  0  0
    4.7792   -5.0667    0.0000 C   0  0  0  0  0  0  0  0  0  0  0  0
    5.6167   -3.9167    0.0000 C   0  0  0  0  0  0  0  0  0  0  0  0
    5.5292   -4.7375    0.0000 C   0  0  0  0  0  0  0  0  0  0  0  0
    7.1292   -3.2542    0.0000 C   0  0  0  0  0  0  0  0  0  0  0  0
    8.0792   -1.2792    0.0000 C   0  0  0  0  0  0  0  0  0  0  0  0
    8.6625   -2.5917    0.0000 C   0  0  0  0  0  0  0  0  0  0  0  0
    7.8042   -3.7542    0.0000 C   0  0  0  0  0  0  0  0  0  0  0  0
    8.5667   -3.4250    0.0000 C   0  0  0  0  0  0  0  0  0  0  0  0
  2  4  1  0  0  0  0
  3  6  1  0  0  0  0
  4 10  1  0  0  0  0
  5  8  1  0  0  0  0
  6  5  1  0  0  0  0
  7  1  1  0  0  0  0
  8  7  2  0  0  0  0
  9  1  1  0  0  0  0
 10 11  2  0  0  0  0
 11  7  1  0  0  0  0
 12  1  2  0  0  0  0
 13  1  2  0  0  0  0
 14  9  1  0  0  0  0
 15  3  2  0  0  0  0
 16 14  1  0  0  0  0
 17  2  1  0  0  0  0
 18 20  1  0  0  0  0
 19  8  1  0  0  0  0
 20 19  2  0  0  0  0
 21 14  2  0  0  0  0
 22 16  1  0  0  0  0
 23 16  2  0  0  0  0
 24 21  1  0  0  0  0
 25 24  2  0  0  0  0
  4  5  2  0  0  0  0
 25 23  1  0  0  0  0
 18  6  2  0  0  0  0
  2  3  1  0  0  0  0
M  END
>  <Code> (P7119561771)
P7119561771

>  <Number of H-Donors> (P7119561771)
1

>  <Number of H-Acceptors> (P7119561771)
3

>  <Number of Rotatable bonds> (P7119561771)
3

>  <CLogP> (P7119561771)
2.900000000000000e+000

>  <Number of Rings> (P7119561771)
4

>  <PSA> (P7119561771)
7.490000000000001e+001

$$$$

  -ISIS-  11102212342D

 32 37  0  0  0  0  0  0  0  0999 V2000
    4.0917    3.6083    0.0000 C   0  0  0  0  0  0  0  0  0  0  0  0
    4.4667    2.9583    0.0000 C   0  0  0  0  0  0  0  0  0  0  0  0
    3.3542    3.4458    0.0000 N   0  0  3  0  0  0  0  0  0  0  0  0
    3.2792    2.7083    0.0000 C   0  0  0  0  0  0  0  0  0  0  0  0
    3.9667    2.3958    0.0000 C   0  0  0  0  0  0  0  0  0  0  0  0
    4.4667    4.2417    0.0000 N   0  0  0  0  0  0  0  0  0  0  0  0
    5.2167    2.9583    0.0000 C   0  0  0  0  0  0  0  0  0  0  0  0
    5.5917    3.6083    0.0000 N   0  0  3  0  0  0  0  0  0  0  0  0
    2.6750    2.2583    0.0000 N   0  0  0  0  0  0  0  0  0  0  0  0
    4.0417    1.6500    0.0000 N   0  0  0  0  0  0  0  0  0  0  0  0
    5.2167    4.2417    0.0000 C   0  0  0  0  0  0  0  0  0  0  0  0
    2.8000    3.9458    0.0000 C   0  0  0  0  0  0  0  0  0  0  0  0
    6.3417    3.6083    0.0000 C   0  0  0  0  0  0  0  0  0  0  0  0
    2.7542    1.5125    0.0000 C   0  0  0  0  0  0  0  0  0  0  0  0
    3.4375    1.2083    0.0000 C   0  0  0  0  0  0  0  0  0  0  0  0
    6.7167    4.2417    0.0000 C   0  0  0  0  0  0  0  0  0  0  0  0
    5.5917    2.3083    0.0000 O   0  0  0  0  0  0  0  0  0  0  0  0
    7.4625    4.3250    0.0000 O   0  0  0  0  0  0  0  0  0  0  0  0
    6.4125    4.9292    0.0000 C   0  0  0  0  0  0  0  0  0  0  0  0
    7.6167    5.0542    0.0000 C   0  0  0  0  0  0  0  0  0  0  0  0
    6.9667    5.4292    0.0000 C   0  0  0  0  0  0  0  0  0  0  0  0
    2.0875    3.7208    0.0000 C   0  0  0  0  0  0  0  0  0  0  0  0
    1.5292    4.2125    0.0000 C   0  0  0  0  0  0  0  0  0  0  0  0
    2.1417    1.0708    0.0000 C   0  0  0  0  0  0  0  0  0  0  0  0
    3.5167    0.4625    0.0000 C   0  0  0  0  0  0  0  0  0  0  0  0
    1.6875    4.9417    0.0000 C   0  0  0  0  0  0  0  0  0  0  0  0
    0.8167    3.9875    0.0000 C   0  0  0  0  0  0  0  0  0  0  0  0
    2.2250    0.3250    0.0000 C   0  0  0  0  0  0  0  0  0  0  0  0
    2.9042    0.0208    0.0000 C   0  0  0  0  0  0  0  0  0  0  0  0
    0.2625    4.4792    0.0000 C   0  0  0  0  0  0  0  0  0  0  0  0
    1.1292    5.4500    0.0000 C   0  0  0  0  0  0  0  0  0  0  0  0
    0.4167    5.2167    0.0000 C   0  0  0  0  0  0  0  0  0  0  0  0
  2  1  2  0  0  0  0
  3  1  1  0  0  0  0
  4  3  1  0  0  0  0
  5  2  1  0  0  0  0
  6  1  1  0  0  0  0
  7  2  1  0  0  0  0
  8 11  1  0  0  0  0
  9  4  2  0  0  0  0
 10  5  2  0  0  0  0
 11  6  2  0  0  0  0
 12  3  1  0  0  0  0
 13  8  1  0  0  0  0
 14  9  1  0  0  0  0
 15 10  1  0  0  0  0
 16 13  1  0  0  0  0
 17  7  2  0  0  0  0
 18 16  1  0  0  0  0
 19 16  2  0  0  0  0
 20 18  1  0  0  0  0
 21 19  1  0  0  0  0
 22 12  1  0  0  0  0
 23 22  1  0  0  0  0
 24 14  2  0  0  0  0
 25 15  2  0  0  0  0
 26 23  2  0  0  0  0
 27 23  1  0  0  0  0
 28 24  1  0  0  0  0
 29 25  1  0  0  0  0
 30 27  2  0  0  0  0
 31 26  1  0  0  0  0
 32 30  1  0  0  0  0
  5  4  1  0  0  0  0
  8  7  1  0  0  0  0
 15 14  1  0  0  0  0
 29 28  2  0  0  0  0
 21 20  2  0  0  0  0
 32 31  2  0  0  0  0
M  END
>  <Code> (P7119471077)
P7119471077

>  <Number of H-Donors> (P7119471077)
0

>  <Number of H-Acceptors> (P7119471077)
4

>  <Number of Rotatable bonds> (P7119471077)
5

>  <CLogP> (P7119471077)
4.300000000000000e+000

>  <Number of Rings> (P7119471077)
6

>  <PSA> (P7119471077)
7.650000000000000e+001

$$$$

  -ISIS-  11102212342D

 28 31  0  0  0  0  0  0  0  0999 V2000
    3.3375   -3.4042    0.0000 S   0  0  3  0  0  0  0  0  0  0  0  0
    1.1417   -0.9792    0.0000 N   0  0  3  0  0  0  0  0  0  0  0  0
    1.9000   -0.2167    0.0000 C   0  0  0  0  0  0  0  0  0  0  0  0
    1.5917   -1.6750    0.0000 C   0  0  0  0  0  0  0  0  0  0  0  0
    2.3792   -1.4625    0.0000 C   0  0  0  0  0  0  0  0  0  0  0  0
    2.5917   -0.6750    0.0000 C   0  0  0  0  0  0  0  0  0  0  0  0
    2.7417   -2.8292    0.0000 C   0  0  0  0  0  0  0  0  0  0  0  0
    2.9542   -2.0417    0.0000 C   0  0  0  0  0  0  0  0  0  0  0  0
    3.9250   -3.9750    0.0000 N   0  0  0  0  0  0  0  0  0  0  0  0
    1.3792   -2.4750    0.0000 C   0  0  0  0  0  0  0  0  0  0  0  0
    3.7250   -4.7667    0.0000 C   0  0  0  0  0  0  0  0  0  0  0  0
    1.9417   -3.0417    0.0000 C   0  0  0  0  0  0  0  0  0  0  0  0
    2.7667   -3.9917    0.0000 O   0  0  0  0  0  0  0  0  0  0  0  0
    3.9042   -2.8167    0.0000 O   0  0  0  0  0  0  0  0  0  0  0  0
    1.9417    0.6000    0.0000 O   0  0  0  0  0  0  0  0  0  0  0  0
    2.9292   -4.9917    0.0000 C   0  0  0  0  0  0  0  0  0  0  0  0
    4.3167   -5.3417    0.0000 C   0  0  0  0  0  0  0  0  0  0  0  0
    4.1167   -6.1292    0.0000 C   0  0  0  0  0  0  0  0  0  0  0  0
    2.7292   -5.7917    0.0000 C   0  0  0  0  0  0  0  0  0  0  0  0
    3.3250   -6.3667    0.0000 C   0  0  0  0  0  0  0  0  0  0  0  0
    0.3167   -1.0250    0.0000 C   0  0  0  0  0  0  0  0  0  0  0  0
    3.3917   -0.4625    0.0000 C   0  0  0  0  0  0  0  0  0  0  0  0
    3.7417   -1.8292    0.0000 C   0  0  0  0  0  0  0  0  0  0  0  0
    4.7125   -6.6917    0.0000 O   0  0  0  0  0  0  0  0  0  0  0  0
    1.9375   -6.0292    0.0000 O   0  0  0  0  0  0  0  0  0  0  0  0
    3.9542   -1.0292    0.0000 C   0  0  0  0  0  0  0  0  0  0  0  0
    4.5250   -7.4875    0.0000 C   0  0  0  0  0  0  0  0  0  0  0  0
    1.3417   -5.4542    0.0000 C   0  0  0  0  0  0  0  0  0  0  0  0
  2  4  1  0  0  0  0
  3  6  1  0  0  0  0
  4 10  1  0  0  0  0
  5  8  1  0  0  0  0
  6  5  1  0  0  0  0
  7  1  1  0  0  0  0
  8  7  2  0  0  0  0
  9  1  1  0  0  0  0
 10 12  2  0  0  0  0
 11  9  1  0  0  0  0
 12  7  1  0  0  0  0
 13  1  2  0  0  0  0
 14  1  2  0  0  0  0
 15  3  2  0  0  0  0
 16 11  2  0  0  0  0
 17 11  1  0  0  0  0
 18 17  2  0  0  0  0
 19 16  1  0  0  0  0
 20 18  1  0  0  0  0
 21  2  1  0  0  0  0
 22 26  1  0  0  0  0
 23  8  1  0  0  0  0
 24 18  1  0  0  0  0
 25 19  1  0  0  0  0
 26 23  2  0  0  0  0
 27 24  1  0  0  0  0
 28 25  1  0  0  0  0
  5  4  2  0  0  0  0
 19 20  2  0  0  0  0
  6 22  2  0  0  0  0
  2  3  1  0  0  0  0
M  END
>  <Code> (P7119250052)
P7119250052

>  <Number of H-Donors> (P7119250052)
1

>  <Number of H-Acceptors> (P7119250052)
5

>  <Number of Rotatable bonds> (P7119250052)
5

>  <CLogP> (P7119250052)
2.400000000000000e+000

>  <Number of Rings> (P7119250052)
4

>  <PSA> (P7119250052)
9.330000000000000e+001

$$$$

  -ISIS-  11102212342D

 22 23  0  0  0  0  0  0  0  0999 V2000
    6.5625   -4.1542    0.0000 S   0  0  3  0  0  0  0  0  0  0  0  0
    5.8042   -3.8167    0.0000 N   0  0  3  0  0  0  0  0  0  0  0  0
    7.3167   -4.4917    0.0000 C   0  0  0  0  0  0  0  0  0  0  0  0
    5.1375   -4.3042    0.0000 C   0  0  0  0  0  0  0  0  0  0  0  0
    7.8917   -4.0667    0.0000 S   0  0  0  0  0  0  0  0  0  0  0  0
    5.7167   -3.0000    0.0000 C   0  0  0  0  0  0  0  0  0  0  0  0
    6.2250   -4.9167    0.0000 O   0  0  0  0  0  0  0  0  0  0  0  0
    6.9000   -3.4000    0.0000 O   0  0  0  0  0  0  0  0  0  0  0  0
    7.3917   -5.2042    0.0000 C   0  0  0  0  0  0  0  0  0  0  0  0
    5.2250   -5.1292    0.0000 O   0  0  0  0  0  0  0  0  0  0  0  0
    8.5542   -4.3667    0.0000 C   0  0  0  0  0  0  0  0  0  0  0  0
    8.6292   -5.0792    0.0000 C   0  0  0  0  0  0  0  0  0  0  0  0
    4.3750   -3.9667    0.0000 C   0  0  3  0  0  0  0  0  0  0  0  0
    6.3917   -2.5125    0.0000 C   0  0  0  0  0  0  0  0  0  0  0  0
    4.9667   -2.6625    0.0000 C   0  0  0  0  0  0  0  0  0  0  0  0
    5.5500   -1.3542    0.0000 C   0  0  0  0  0  0  0  0  0  0  0  0
    4.8792   -1.8417    0.0000 C   0  0  0  0  0  0  0  0  0  0  0  0
    6.3042   -1.6917    0.0000 C   0  0  0  0  0  0  0  0  0  0  0  0
    5.4625   -0.5292    0.0000 O   0  0  0  0  0  0  0  0  0  0  0  0
    4.2792   -3.1500    0.0000 C   0  0  0  0  0  0  0  0  0  0  0  0
    3.7042   -4.4542    0.0000 C   0  0  0  0  0  0  0  0  0  0  0  0
    6.1292   -0.0500    0.0000 C   0  0  0  0  0  0  0  0  0  0  0  0
  2  1  1  0  0  0  0
  3  1  1  0  0  0  0
  4  2  1  0  0  0  0
  5  3  1  0  0  0  0
  6  2  1  0  0  0  0
  7  1  2  0  0  0  0
  8  1  2  0  0  0  0
  9  3  2  0  0  0  0
 10  4  2  0  0  0  0
 11  5  1  0  0  0  0
 12  9  1  0  0  0  0
 13  4  1  0  0  0  0
 14  6  2  0  0  0  0
 15  6  1  0  0  0  0
 16 17  1  0  0  0  0
 17 15  2  0  0  0  0
 18 14  1  0  0  0  0
 19 16  1  0  0  0  0
 20 13  1  0  0  0  0
 21 13  1  0  0  0  0
 22 19  1  0  0  0  0
 12 11  2  0  0  0  0
 18 16  2  0  0  0  0
M  END
>  <Code> (P7118351690)
P7118351690

>  <Number of H-Donors> (P7118351690)
0

>  <Number of H-Acceptors> (P7118351690)
4

>  <Number of Rotatable bonds> (P7118351690)
5

>  <CLogP> (P7118351690)
3.200000000000000e+000

>  <Number of Rings> (P7118351690)
2

>  <PSA> (P7118351690)
1.003000000000000e+002

$$$$

  -ISIS-  11102212342D

 22 23  0  0  0  0  0  0  0  0999 V2000
    7.0000    1.1625    0.0000 S   0  0  3  0  0  0  0  0  0  0  0  0
    4.7542   -0.1292    0.0000 C   0  0  0  0  0  0  0  0  0  0  0  0
    9.2542    2.4708    0.0000 N   0  0  0  0  0  0  0  0  0  0  0  0
   11.4917    1.1625    0.0000 C   0  0  0  0  0  0  0  0  0  0  0  0
    4.7542   -2.7292    0.0000 C   0  0  0  0  0  0  0  0  0  0  0  0
    8.2917   -1.0792    0.0000 O   0  0  0  0  0  0  0  0  0  0  0  0
    5.6917    3.4250    0.0000 O   0  0  0  0  0  0  0  0  0  0  0  0
   11.4917   -1.4292    0.0000 C   0  0  0  0  0  0  0  0  0  0  0  0
    2.5042    1.1625    0.0000 C   0  0  0  0  0  0  0  0  0  0  0  0
   13.7500    2.4708    0.0000 C   0  0  0  0  0  0  0  0  0  0  0  0
    0.2417   -0.1292    0.0000 C   0  0  0  0  0  0  0  0  0  0  0  0
   16.0000    1.1625    0.0000 C   0  0  0  0  0  0  0  0  0  0  0  0
   13.7500   -2.7292    0.0000 C   0  0  0  0  0  0  0  0  0  0  0  0
    2.5042   -4.0292    0.0000 C   0  0  0  0  0  0  0  0  0  0  0  0
   16.0000   -1.4292    0.0000 C   0  0  0  0  0  0  0  0  0  0  0  0
    0.2417   -2.7292    0.0000 C   0  0  0  0  0  0  0  0  0  0  0  0
   13.7500   -5.3125    0.0000 Cl  0  0  0  0  0  0  0  0  0  0  0  0
   13.7500    5.0542    0.0000 O   0  0  0  0  0  0  0  0  0  0  0  0
    2.5042    3.7500    0.0000 O   0  0  0  0  0  0  0  0  0  0  0  0
    2.5042   -6.6167    0.0000 O   0  0  0  0  0  0  0  0  0  0  0  0
    4.7375    5.0292    0.0000 C   0  0  0  0  0  0  0  0  0  0  0  0
    0.2542   -7.9125    0.0000 C   0  0  0  0  0  0  0  0  0  0  0  0
  2  1  1  0  0  0  0
  3  1  1  0  0  0  0
  4  3  1  0  0  0  0
  5  2  1  0  0  0  0
  6  1  2  0  0  0  0
  7  1  2  0  0  0  0
  8  4  1  0  0  0  0
  9  2  2  0  0  0  0
 10  4  2  0  0  0  0
 11  9  1  0  0  0  0
 12 10  1  0  0  0  0
 13  8  2  0  0  0  0
 14  5  2  0  0  0  0
 15 12  2  0  0  0  0
 16 11  2  0  0  0  0
 17 13  1  0  0  0  0
 18 10  1  0  0  0  0
 19  9  1  0  0  0  0
 20 14  1  0  0  0  0
 21 19  1  0  0  0  0
 22 20  1  0  0  0  0
 16 14  1  0  0  0  0
 15 13  1  0  0  0  0
M  END
>  <Code> (P7118350664)
P7118350664

>  <Number of H-Donors> (P7118350664)
2

>  <Number of H-Acceptors> (P7118350664)
5

>  <Number of Rotatable bonds> (P7118350664)
5

>  <CLogP> (P7118350664)
2.700000000000000e+000

>  <Number of Rings> (P7118350664)
2

>  <PSA> (P7118350664)
9.320000000000000e+001

$$$$

  -ISIS-  11102212342D

 26 29  0  0  0  0  0  0  0  0999 V2000
    2.6917   -6.0750    0.0000 N   0  0  3  0  0  0  0  0  0  0  0  0
    3.4792   -5.8167    0.0000 C   0  0  0  0  0  0  0  0  0  0  0  0
    2.2125   -5.4042    0.0000 N   0  0  0  0  0  0  0  0  0  0  0  0
    3.4792   -4.9917    0.0000 C   0  0  0  0  0  0  0  0  0  0  0  0
    2.6917   -4.7375    0.0000 C   0  0  0  0  0  0  0  0  0  0  0  0
    4.1917   -4.5792    0.0000 C   0  0  0  0  0  0  0  0  0  0  0  0
    4.1917   -6.2292    0.0000 N   0  0  0  0  0  0  0  0  0  0  0  0
    4.9042   -4.9917    0.0000 N   0  0  0  0  0  0  0  0  0  0  0  0
    2.4417   -6.8542    0.0000 C   0  0  0  0  0  0  0  0  0  0  0  0
    4.9000   -5.8167    0.0000 C   0  0  0  0  0  0  0  0  0  0  0  0
    1.6292   -7.0250    0.0000 C   0  0  0  0  0  0  0  0  0  0  0  0
    2.9875   -7.4667    0.0000 C   0  0  0  0  0  0  0  0  0  0  0  0
    4.1917   -3.7542    0.0000 S   0  0  0  0  0  0  0  0  0  0  0  0
    1.9250   -8.4167    0.0000 C   0  0  0  0  0  0  0  0  0  0  0  0
    2.7292   -8.2417    0.0000 C   0  0  0  0  0  0  0  0  0  0  0  0
    1.3750   -7.8042    0.0000 C   0  0  0  0  0  0  0  0  0  0  0  0
    1.6667   -9.2042    0.0000 F   0  0  0  0  0  0  0  0  0  0  0  0
    2.7542   -1.2875    0.0000 C   0  0  0  0  0  0  0  0  0  0  0  0
    2.7625   -2.1125    0.0000 O   0  0  0  0  0  0  0  0  0  0  0  0
    3.4792   -3.3417    0.0000 C   0  0  0  0  0  0  0  0  0  0  0  0
    3.4750   -2.5167    0.0000 C   0  0  0  0  0  0  0  0  0  0  0  0
    2.0417   -0.8792    0.0000 C   0  0  0  0  0  0  0  0  0  0  0  0
    3.4750   -0.8750    0.0000 C   0  0  0  0  0  0  0  0  0  0  0  0
    3.4750   -0.0500    0.0000 C   0  0  0  0  0  0  0  0  0  0  0  0
    2.0417   -0.0542    0.0000 C   0  0  0  0  0  0  0  0  0  0  0  0
    2.7542    0.3625    0.0000 C   0  0  0  0  0  0  0  0  0  0  0  0
  2  1  1  0  0  0  0
  3  1  1  0  0  0  0
  4  2  2  0  0  0  0
  5  3  2  0  0  0  0
  6  4  1  0  0  0  0
  7  2  1  0  0  0  0
  8 10  1  0  0  0  0
  9  1  1  0  0  0  0
 10  7  2  0  0  0  0
 11  9  2  0  0  0  0
 12  9  1  0  0  0  0
 13  6  1  0  0  0  0
 14 15  1  0  0  0  0
 15 12  2  0  0  0  0
 16 11  1  0  0  0  0
 17 14  1  0  0  0  0
 18 19  1  0  0  0  0
 19 21  1  0  0  0  0
 20 13  1  0  0  0  0
 21 20  1  0  0  0  0
 22 18  1  0  0  0  0
 23 18  2  0  0  0  0
 24 23  1  0  0  0  0
 25 22  2  0  0  0  0
 26 24  2  0  0  0  0
  5  4  1  0  0  0  0
 16 14  2  0  0  0  0
  8  6  2  0  0  0  0
 25 26  1  0  0  0  0
M  END
>  <Code> (P7118070067)
P7118070067

>  <Number of H-Donors> (P7118070067)
0

>  <Number of H-Acceptors> (P7118070067)
5

>  <Number of Rotatable bonds> (P7118070067)
6

>  <CLogP> (P7118070067)
4.600000000000000e+000

>  <Number of Rings> (P7118070067)
4

>  <PSA> (P7118070067)
7.809999999999999e+001

$$$$

  -ISIS-  11102212342D

 22 24  0  0  0  0  0  0  0  0999 V2000
   -0.7333   -1.6042    0.0000 C   0  0  0  0  0  0  0  0  0  0  0  0
   -1.4375   -1.2000    0.0000 N   0  0  3  0  0  0  0  0  0  0  0  0
   -0.7375   -2.4292    0.0000 O   0  0  0  0  0  0  0  0  0  0  0  0
   -1.4333   -0.3750    0.0000 C   0  0  0  0  0  0  0  0  0  0  0  0
   -0.0125   -1.2000    0.0000 O   0  0  0  0  0  0  0  0  0  0  0  0
   -0.0333   -2.8542    0.0000 C   0  0  0  0  0  0  0  0  0  0  0  0
    1.3917   -2.8542    0.0000 C   0  0  0  0  0  0  0  0  0  0  0  0
    0.6792   -2.4500    0.0000 C   0  0  0  0  0  0  0  0  0  0  0  0
    1.3875   -3.6792    0.0000 C   0  0  0  0  0  0  0  0  0  0  0  0
   -0.7208    0.0375    0.0000 C   0  0  0  0  0  0  0  0  0  0  0  0
   -2.1458    0.0375    0.0000 C   0  0  0  0  0  0  0  0  0  0  0  0
    0.6750   -4.0917    0.0000 C   0  0  0  0  0  0  0  0  0  0  0  0
   -0.0333   -3.6792    0.0000 C   0  0  0  0  0  0  0  0  0  0  0  0
   -0.7208    0.8708    0.0000 C   0  0  0  0  0  0  0  0  0  0  0  0
   -2.1458    0.8625    0.0000 C   0  0  0  0  0  0  0  0  0  0  0  0
   -1.4333    1.2833    0.0000 C   0  0  0  0  0  0  0  0  0  0  0  0
   -2.1583   -1.6042    0.0000 C   0  0  0  0  0  0  0  0  0  0  0  0
    2.1000   -2.4500    0.0000 C   0  0  0  0  0  0  0  0  0  0  0  0
    2.0917   -4.0917    0.0000 C   0  0  0  0  0  0  0  0  0  0  0  0
   -1.4375    2.1083    0.0000 C   0  0  0  0  0  0  0  0  0  0  0  0
    2.8125   -2.8625    0.0000 C   0  0  0  0  0  0  0  0  0  0  0  0
    2.8125   -3.6875    0.0000 C   0  0  0  0  0  0  0  0  0  0  0  0
  2  1  1  0  0  0  0
  3  1  1  0  0  0  0
  4  2  1  0  0  0  0
  5  1  2  0  0  0  0
  6  3  1  0  0  0  0
  7  8  2  0  0  0  0
  8  6  1  0  0  0  0
  9 12  2  0  0  0  0
 10  4  2  0  0  0  0
 11  4  1  0  0  0  0
 12 13  1  0  0  0  0
 13  6  2  0  0  0  0
 14 10  1  0  0  0  0
 15 11  2  0  0  0  0
 16 15  1  0  0  0  0
 17  2  1  0  0  0  0
 18  7  1  0  0  0  0
 19  9  1  0  0  0  0
 20 16  1  0  0  0  0
 21 18  2  0  0  0  0
 22 19  2  0  0  0  0
  7  9  1  0  0  0  0
 14 16  2  0  0  0  0
 21 22  1  0  0  0  0
M  END
>  <Code> (P7117100154)
P7117100154

>  <Number of H-Donors> (P7117100154)
0

>  <Number of H-Acceptors> (P7117100154)
2

>  <Number of Rotatable bonds> (P7117100154)
3

>  <CLogP> (P7117100154)
4.800000000000000e+000

>  <Number of Rings> (P7117100154)
3

>  <PSA> (P7117100154)
2.950000000000000e+001

$$$$

  -ISIS-  11102212342D

 22 24  0  0  0  0  0  0  0  0999 V2000
   -1.5625    0.4125    0.0000 N   0  0  3  0  0  0  0  0  0  0  0  0
   -0.8625    0.8333    0.0000 C   0  0  0  0  0  0  0  0  0  0  0  0
   -2.2625    0.8125    0.0000 C   0  0  0  0  0  0  0  0  0  0  0  0
   -0.8625    1.6333    0.0000 C   0  0  0  0  0  0  0  0  0  0  0  0
   -1.5625    2.0500    0.0000 C   0  0  0  0  0  0  0  0  0  0  0  0
   -2.2625    1.6333    0.0000 C   0  0  0  0  0  0  0  0  0  0  0  0
   -1.5625    2.8500    0.0000 C   0  0  0  0  0  0  0  0  0  0  0  0
   -0.1458    2.0500    0.0000 C   0  0  0  0  0  0  0  0  0  0  0  0
   -0.1208    0.4125    0.0000 O   0  0  0  0  0  0  0  0  0  0  0  0
   -2.9625    0.3708    0.0000 O   0  0  0  0  0  0  0  0  0  0  0  0
   -0.8625    3.2708    0.0000 C   0  0  0  0  0  0  0  0  0  0  0  0
   -0.2000   -2.0667    0.0000 C   0  0  0  0  0  0  0  0  0  0  0  0
   -0.1625    2.8708    0.0000 C   0  0  0  0  0  0  0  0  0  0  0  0
    0.5167   -1.6667    0.0000 O   0  0  0  0  0  0  0  0  0  0  0  0
   -1.5833   -0.4042    0.0000 C   0  0  0  0  0  0  0  0  0  0  0  0
   -2.9833    2.0333    0.0000 C   0  0  0  0  0  0  0  0  0  0  0  0
   -0.2208   -2.8875    0.0000 O   0  0  0  0  0  0  0  0  0  0  0  0
   -0.8458    4.0875    0.0000 O   0  0  0  0  0  0  0  0  0  0  0  0
   -2.2833    3.2708    0.0000 C   0  0  0  0  0  0  0  0  0  0  0  0
   -0.8833   -0.8292    0.0000 C   0  0  0  0  0  0  0  0  0  0  0  0
   -0.9000   -1.6500    0.0000 C   0  0  0  0  0  0  0  0  0  0  0  0
   -2.9833    2.8500    0.0000 C   0  0  0  0  0  0  0  0  0  0  0  0
  2  1  1  0  0  0  0
  3  1  1  0  0  0  0
  4  2  1  0  0  0  0
  5  6  1  0  0  0  0
  6  3  1  0  0  0  0
  7  5  2  0  0  0  0
  8  4  2  0  0  0  0
  9  2  2  0  0  0  0
 10  3  2  0  0  0  0
 11  7  1  0  0  0  0
 12 21  1  0  0  0  0
 13  8  1  0  0  0  0
 14 12  2  0  0  0  0
 15  1  1  0  0  0  0
 16  6  2  0  0  0  0
 17 12  1  0  0  0  0
 18 11  1  0  0  0  0
 19 22  2  0  0  0  0
 20 15  1  0  0  0  0
 21 20  1  0  0  0  0
 22 16  1  0  0  0  0
  4  5  1  0  0  0  0
 13 11  2  0  0  0  0
  7 19  1  0  0  0  0
M  END
>  <Code> (P7115750081)
P7115750081

>  <Number of H-Donors> (P7115750081)
2

>  <Number of H-Acceptors> (P7115750081)
5

>  <Number of Rotatable bonds> (P7115750081)
4

>  <CLogP> (P7115750081)
1.600000000000000e+000

>  <Number of Rings> (P7115750081)
3

>  <PSA> (P7115750081)
9.490000000000002e+001

$$$$

  -ISIS-  11102212342D

 24 27  0  0  0  0  0  0  0  0999 V2000
    3.5542    1.9125    0.0000 S   0  0  3  0  0  0  0  0  0  0  0  0
    3.2375    1.1708    0.0000 N   0  0  0  0  0  0  0  0  0  0  0  0
    3.1667    4.6792    0.0000 C   0  0  3  0  0  0  0  0  0  0  0  0
    2.9042    0.4083    0.0000 C   0  0  3  0  0  0  0  0  0  0  0  0
    3.8542    2.6583    0.0000 C   0  0  0  0  0  0  0  0  0  0  0  0
    3.6625    4.0417    0.0000 C   0  0  0  0  0  0  0  0  0  0  0  0
    4.4042    1.4250    0.0000 O   0  0  0  0  0  0  0  0  0  0  0  0
    2.7292    2.3958    0.0000 O   0  0  0  0  0  0  0  0  0  0  0  0
    3.3625    3.2958    0.0000 C   0  0  0  0  0  0  0  0  0  0  0  0
    2.1875   -0.6542    0.0000 C   0  0  3  0  0  0  0  0  0  0  0  0
    2.3542   -1.1125    0.0000 C   0  0  3  0  0  0  0  0  0  0  0  0
    3.6542   -0.7292    0.0000 C   0  0  3  0  0  0  0  0  0  0  0  0
    3.6542    0.0958    0.0000 C   0  0  0  0  0  0  0  0  0  0  0  0
    2.3500   -0.2542    0.0000 C   0  0  0  0  0  0  0  0  0  0  0  0
    2.1792    0.1458    0.0000 C   0  0  0  0  0  0  0  0  0  0  0  0
    2.7167    5.2625    0.0000 F   0  0  0  0  0  0  0  0  0  0  0  0
    3.3542    5.4917    0.0000 F   0  0  0  0  0  0  0  0  0  0  0  0
    2.3167    4.6917    0.0000 F   0  0  0  0  0  0  0  0  0  0  0  0
    2.9000   -0.9167    0.0000 C   0  0  0  0  0  0  0  0  0  0  0  0
    3.1042   -1.4167    0.0000 C   0  0  0  0  0  0  0  0  0  0  0  0
    1.5417   -1.3375    0.0000 C   0  0  0  0  0  0  0  0  0  0  0  0
    4.6625    2.7750    0.0000 C   0  0  0  0  0  0  0  0  0  0  0  0
    4.4667    4.1542    0.0000 C   0  0  0  0  0  0  0  0  0  0  0  0
    4.9625    3.5250    0.0000 C   0  0  0  0  0  0  0  0  0  0  0  0
  2  1  1  0  0  0  0
  3  6  1  0  0  0  0
  4  2  1  0  0  0  0
  5  1  1  0  0  0  0
  6  9  1  0  0  0  0
  7  1  2  0  0  0  0
  8  1  2  0  0  0  0
  9  5  2  0  0  0  0
 10 15  1  0  0  0  0
 11 14  1  0  0  0  0
 12 13  1  0  0  0  0
 13  4  1  0  0  0  0
 14  4  1  0  0  0  0
 15  4  1  0  0  0  0
 16  3  1  0  0  0  0
 17  3  1  0  0  0  0
 18  3  1  0  0  0  0
 19 10  1  0  0  0  0
 20 11  1  0  0  0  0
 21 10  1  0  0  0  0
 22  5  1  0  0  0  0
 23 24  1  0  0  0  0
 24 22  2  0  0  0  0
 23  6  2  0  0  0  0
 11 21  1  0  0  0  0
 12 19  1  0  0  0  0
 12 20  1  0  0  0  0
M  END
>  <Code> (P7114830463)
P7114830463

>  <Number of H-Donors> (P7114830463)
1

>  <Number of H-Acceptors> (P7114830463)
2

>  <Number of Rotatable bonds> (P7114830463)
4

>  <CLogP> (P7114830463)
3.800000000000000e+000

>  <Number of Rings> (P7114830463)
4

>  <PSA> (P7114830463)
5.460000000000000e+001

$$$$

  -ISIS-  11102212342D

 21 22  0  0  0  0  0  0  0  0999 V2000
   -2.7458    0.8000    0.0000 S   0  0  3  0  0  0  0  0  0  0  0  0
   -4.8208    1.2500    0.0000 C   0  0  0  0  0  0  0  0  0  0  0  0
   -5.3000    1.8958    0.0000 C   0  0  3  0  0  0  0  0  0  0  0  0
   -3.5458    0.7083    0.0000 C   0  0  0  0  0  0  0  0  0  0  0  0
   -4.0333    1.3500    0.0000 C   0  0  0  0  0  0  0  0  0  0  0  0
   -1.9458    0.8333    0.0000 N   0  0  0  0  0  0  0  0  0  0  0  0
   -2.6375   -0.1417    0.0000 O   0  0  0  0  0  0  0  0  0  0  0  0
   -2.9458    1.8708    0.0000 O   0  0  0  0  0  0  0  0  0  0  0  0
   -5.1458    0.5208    0.0000 C   0  0  0  0  0  0  0  0  0  0  0  0
   -3.8625   -0.0292    0.0000 C   0  0  0  0  0  0  0  0  0  0  0  0
   -5.7375    2.4750    0.0000 F   0  0  0  0  0  0  0  0  0  0  0  0
   -5.1000    2.6958    0.0000 F   0  0  0  0  0  0  0  0  0  0  0  0
   -6.1292    1.9208    0.0000 F   0  0  0  0  0  0  0  0  0  0  0  0
   -4.6583   -0.1292    0.0000 C   0  0  0  0  0  0  0  0  0  0  0  0
   -5.9333    0.4250    0.0000 Cl  0  0  0  0  0  0  0  0  0  0  0  0
   -1.1125    0.8708    0.0000 C   0  0  3  0  0  0  0  0  0  0  0  0
   -0.7333    1.6083    0.0000 C   0  0  0  0  0  0  0  0  0  0  0  0
   -0.6708    0.1708    0.0000 C   0  0  0  0  0  0  0  0  0  0  0  0
    0.1542    0.2083    0.0000 C   0  0  0  0  0  0  0  0  0  0  0  0
    0.0917    1.6375    0.0000 C   0  0  0  0  0  0  0  0  0  0  0  0
    0.5417    0.9333    0.0000 C   0  0  0  0  0  0  0  0  0  0  0  0
  2  5  2  0  0  0  0
  3  2  1  0  0  0  0
  4  1  1  0  0  0  0
  5  4  1  0  0  0  0
  6  1  1  0  0  0  0
  7  1  2  0  0  0  0
  8  1  2  0  0  0  0
  9 14  2  0  0  0  0
 10  4  2  0  0  0  0
 11  3  1  0  0  0  0
 12  3  1  0  0  0  0
 13  3  1  0  0  0  0
 14 10  1  0  0  0  0
 15  9  1  0  0  0  0
 16  6  1  0  0  0  0
 17 16  1  0  0  0  0
 18 16  1  0  0  0  0
 19 18  1  0  0  0  0
 20 17  1  0  0  0  0
 21 19  1  0  0  0  0
  2  9  1  0  0  0  0
 21 20  1  0  0  0  0
M  END
>  <Code> (P7114830460)
P7114830460

>  <Number of H-Donors> (P7114830460)
1

>  <Number of H-Acceptors> (P7114830460)
2

>  <Number of Rotatable bonds> (P7114830460)
4

>  <CLogP> (P7114830460)
4.200000000000000e+000

>  <Number of Rings> (P7114830460)
2

>  <PSA> (P7114830460)
5.460000000000000e+001

$$$$

  -ISIS-  11102212342D

 25 28  0  0  0  0  0  0  0  0999 V2000
    0.2417    2.9333    0.0000 S   0  0  3  0  0  0  0  0  0  0  0  0
    1.5542    4.5917    0.0000 C   0  0  0  0  0  0  0  0  0  0  0  0
    2.3417    4.7417    0.0000 C   0  0  3  0  0  0  0  0  0  0  0  0
   -0.0708    2.1833    0.0000 N   0  0  0  0  0  0  0  0  0  0  0  0
   -0.4000    1.4208    0.0000 C   0  0  3  0  0  0  0  0  0  0  0  0
    0.5042    3.6875    0.0000 C   0  0  0  0  0  0  0  0  0  0  0  0
    1.3000    3.8458    0.0000 C   0  0  0  0  0  0  0  0  0  0  0  0
   -0.6500    3.2458    0.0000 O   0  0  0  0  0  0  0  0  0  0  0  0
    1.2917    2.6458    0.0000 O   0  0  0  0  0  0  0  0  0  0  0  0
    1.0375    5.2000    0.0000 C   0  0  0  0  0  0  0  0  0  0  0  0
   -0.9583   -0.0917    0.0000 C   0  0  3  0  0  0  0  0  0  0  0  0
    0.3417    0.2833    0.0000 C   0  0  3  0  0  0  0  0  0  0  0  0
   -1.1208    0.3625    0.0000 C   0  0  3  0  0  0  0  0  0  0  0  0
   -0.9583    0.7583    0.0000 C   0  0  0  0  0  0  0  0  0  0  0  0
   -1.1250    1.1583    0.0000 C   0  0  0  0  0  0  0  0  0  0  0  0
    0.3500    1.1083    0.0000 C   0  0  0  0  0  0  0  0  0  0  0  0
   -0.0208    4.2917    0.0000 C   0  0  0  0  0  0  0  0  0  0  0  0
    3.0667    4.8792    0.0000 F   0  0  0  0  0  0  0  0  0  0  0  0
    2.9792    4.2125    0.0000 F   0  0  0  0  0  0  0  0  0  0  0  0
    2.7375    5.4792    0.0000 F   0  0  0  0  0  0  0  0  0  0  0  0
    0.2417    5.0542    0.0000 C   0  0  0  0  0  0  0  0  0  0  0  0
   -0.4083    0.1000    0.0000 C   0  0  0  0  0  0  0  0  0  0  0  0
   -0.2000   -0.4042    0.0000 C   0  0  0  0  0  0  0  0  0  0  0  0
   -1.7625   -0.3167    0.0000 C   0  0  0  0  0  0  0  0  0  0  0  0
    1.3000    5.9542    0.0000 Cl  0  0  0  0  0  0  0  0  0  0  0  0
  2  7  2  0  0  0  0
  3  2  1  0  0  0  0
  4  1  1  0  0  0  0
  5  4  1  0  0  0  0
  6  1  1  0  0  0  0
  7  6  1  0  0  0  0
  8  1  2  0  0  0  0
  9  1  2  0  0  0  0
 10 21  2  0  0  0  0
 11 14  1  0  0  0  0
 12 16  1  0  0  0  0
 13 15  1  0  0  0  0
 14  5  1  0  0  0  0
 15  5  1  0  0  0  0
 16  5  1  0  0  0  0
 17  6  2  0  0  0  0
 18  3  1  0  0  0  0
 19  3  1  0  0  0  0
 20  3  1  0  0  0  0
 21 17  1  0  0  0  0
 22 12  1  0  0  0  0
 23 12  1  0  0  0  0
 24 13  1  0  0  0  0
 25 10  1  0  0  0  0
 10  2  1  0  0  0  0
 11 23  1  0  0  0  0
 13 22  1  0  0  0  0
 24 11  1  0  0  0  0
M  END
>  <Code> (P7114830227)
P7114830227

>  <Number of H-Donors> (P7114830227)
1

>  <Number of H-Acceptors> (P7114830227)
2

>  <Number of Rotatable bonds> (P7114830227)
4

>  <CLogP> (P7114830227)
4.500000000000000e+000

>  <Number of Rings> (P7114830227)
4

>  <PSA> (P7114830227)
5.460000000000000e+001

$$$$

  -ISIS-  11102212342D

 34 37  0  0  0  0  0  0  0  0999 V2000
   -0.5625   -0.7667    0.0000 S   0  0  3  0  0  0  0  0  0  0  0  0
   -0.6958   -0.0125    0.0000 N   0  0  3  0  0  0  0  0  0  0  0  0
    1.9167    0.6083    0.0000 C   0  0  0  0  0  0  0  0  0  0  0  0
    1.1667    0.7125    0.0000 C   0  0  0  0  0  0  0  0  0  0  0  0
    2.2417    1.2875    0.0000 C   0  0  0  0  0  0  0  0  0  0  0  0
   -1.4000    0.2500    0.0000 C   0  0  0  0  0  0  0  0  0  0  0  0
   -0.1208    0.4750    0.0000 C   0  0  0  0  0  0  0  0  0  0  0  0
    1.7042    1.8208    0.0000 O   0  0  0  0  0  0  0  0  0  0  0  0
    1.0375    1.4625    0.0000 C   0  0  0  0  0  0  0  0  0  0  0  0
    0.5792    0.2125    0.0000 C   0  0  0  0  0  0  0  0  0  0  0  0
   -0.4333   -1.5250    0.0000 C   0  0  0  0  0  0  0  0  0  0  0  0
    0.1792   -0.6375    0.0000 O   0  0  0  0  0  0  0  0  0  0  0  0
   -1.3000   -0.9000    0.0000 O   0  0  0  0  0  0  0  0  0  0  0  0
    2.2750   -0.0667    0.0000 C   0  0  0  0  0  0  0  0  0  0  0  0
   -1.5333    1.0000    0.0000 C   0  0  0  0  0  0  0  0  0  0  0  0
   -1.9833   -0.2417    0.0000 O   0  0  0  0  0  0  0  0  0  0  0  0
   -0.2458    1.2375    0.0000 C   0  0  0  0  0  0  0  0  0  0  0  0
    0.3292    1.7250    0.0000 C   0  0  0  0  0  0  0  0  0  0  0  0
    1.8667   -0.7125    0.0000 O   0  0  0  0  0  0  0  0  0  0  0  0
   -1.0000   -2.0125    0.0000 C   0  0  0  0  0  0  0  0  0  0  0  0
    0.2750   -1.7875    0.0000 C   0  0  0  0  0  0  0  0  0  0  0  0
   -0.9458    1.4958    0.0000 C   0  0  0  0  0  0  0  0  0  0  0  0
   -2.2458    1.2708    0.0000 C   0  0  0  0  0  0  0  0  0  0  0  0
   -1.7958    2.5208    0.0000 C   0  0  0  0  0  0  0  0  0  0  0  0
    3.0042    1.4208    0.0000 C   0  0  0  0  0  0  0  0  0  0  0  0
   -0.1833   -3.0250    0.0000 C   0  0  0  0  0  0  0  0  0  0  0  0
   -1.0833    2.2375    0.0000 C   0  0  0  0  0  0  0  0  0  0  0  0
   -2.3708    2.0250    0.0000 C   0  0  0  0  0  0  0  0  0  0  0  0
   -0.8833   -2.7542    0.0000 C   0  0  0  0  0  0  0  0  0  0  0  0
    0.4000   -2.5375    0.0000 C   0  0  0  0  0  0  0  0  0  0  0  0
   -1.9208    3.2750    0.0000 Cl  0  0  0  0  0  0  0  0  0  0  0  0
   -0.0625   -3.7875    0.0000 O   0  0  0  0  0  0  0  0  0  0  0  0
    3.0375   -0.0917    0.0000 C   0  0  0  0  0  0  0  0  0  0  0  0
    0.6292   -4.0667    0.0000 C   0  0  0  0  0  0  0  0  0  0  0  0
  2  1  1  0  0  0  0
  3  4  1  0  0  0  0
  4 10  2  0  0  0  0
  5  3  2  0  0  0  0
  6  2  1  0  0  0  0
  7  2  1  0  0  0  0
  8  9  1  0  0  0  0
  9 18  2  0  0  0  0
 10  7  1  0  0  0  0
 11  1  1  0  0  0  0
 12  1  2  0  0  0  0
 13  1  2  0  0  0  0
 14  3  1  0  0  0  0
 15  6  1  0  0  0  0
 16  6  2  0  0  0  0
 17  7  2  0  0  0  0
 18 17  1  0  0  0  0
 19 14  2  0  0  0  0
 20 11  2  0  0  0  0
 21 11  1  0  0  0  0
 22 15  1  0  0  0  0
 23 15  2  0  0  0  0
 24 28  2  0  0  0  0
 25  5  1  0  0  0  0
 26 30  1  0  0  0  0
 27 22  2  0  0  0  0
 28 23  1  0  0  0  0
 29 20  1  0  0  0  0
 30 21  2  0  0  0  0
 31 24  1  0  0  0  0
 32 26  1  0  0  0  0
 33 14  1  0  0  0  0
 34 32  1  0  0  0  0
 26 29  2  0  0  0  0
  9  4  1  0  0  0  0
 24 27  1  0  0  0  0
  5  8  1  0  0  0  0
M  END
>  <Code> (P7114551525)
P7114551525

>  <Number of H-Donors> (P7114551525)
0

>  <Number of H-Acceptors> (P7114551525)
5

>  <Number of Rotatable bonds> (P7114551525)
6

>  <CLogP> (P7114551525)
4.800000000000000e+000

>  <Number of Rings> (P7114551525)
4

>  <PSA> (P7114551525)
1.023000000000000e+002

$$$$

  -ISIS-  11102212342D

 25 27  0  0  0  0  0  0  0  0999 V2000
    0.7000   -2.8500    0.0000 C   0  0  0  0  0  0  0  0  0  0  0  0
    0.7000   -1.7167    0.0000 N   0  0  3  0  0  0  0  0  0  0  0  0
    2.6875   -1.7167    0.0000 C   0  0  0  0  0  0  0  0  0  0  0  0
   -0.3833   -3.2042    0.0000 N   0  0  0  0  0  0  0  0  0  0  0  0
    1.6875   -1.1542    0.0000 C   0  0  3  0  0  0  0  0  0  0  0  0
    1.6875   -3.4292    0.0000 N   0  0  0  0  0  0  0  0  0  0  0  0
    2.6875   -2.8500    0.0000 C   0  0  0  0  0  0  0  0  0  0  0  0
   -0.3833   -1.3792    0.0000 N   0  0  0  0  0  0  0  0  0  0  0  0
    1.6875   -0.0000    0.0000 C   0  0  0  0  0  0  0  0  0  0  0  0
   -1.0458   -2.3042    0.0000 C   0  0  0  0  0  0  0  0  0  0  0  0
    3.7000   -1.1792    0.0000 C   0  0  0  0  0  0  0  0  0  0  0  0
    0.7000    0.5708    0.0000 C   0  0  0  0  0  0  0  0  0  0  0  0
    2.6875    0.6000    0.0000 C   0  0  0  0  0  0  0  0  0  0  0  0
    0.7000    1.7333    0.0000 C   0  0  0  0  0  0  0  0  0  0  0  0
    4.6875   -1.7667    0.0000 O   0  0  0  0  0  0  0  0  0  0  0  0
    1.6875    2.2958    0.0000 C   0  0  0  0  0  0  0  0  0  0  0  0
    3.7292   -0.0292    0.0000 N   0  0  0  0  0  0  0  0  0  0  0  0
   -0.2833   -0.0042    0.0000 Cl  0  0  0  0  0  0  0  0  0  0  0  0
    2.6875    1.7333    0.0000 C   0  0  0  0  0  0  0  0  0  0  0  0
    3.7000   -3.4042    0.0000 C   0  0  0  0  0  0  0  0  0  0  0  0
    1.6792    3.4333    0.0000 Cl  0  0  0  0  0  0  0  0  0  0  0  0
   -2.2125   -2.3375    0.0000 C   0  0  0  0  0  0  0  0  0  0  0  0
   -4.5208   -0.4167    0.0000 O   0  0  0  0  0  0  0  0  0  0  0  0
   -3.9458   -1.4000    0.0000 C   0  0  0  0  0  0  0  0  0  0  0  0
   -2.8000   -1.3542    0.0000 C   0  0  0  0  0  0  0  0  0  0  0  0
  2  1  1  0  0  0  0
  3  7  2  0  0  0  0
  4  1  2  0  0  0  0
  5  2  1  0  0  0  0
  6  1  1  0  0  0  0
  7  6  1  0  0  0  0
  8  2  1  0  0  0  0
  9  5  1  0  0  0  0
 10  4  1  0  0  0  0
 11  3  1  0  0  0  0
 12  9  1  0  0  0  0
 13  9  2  0  0  0  0
 14 12  2  0  0  0  0
 15 11  2  0  0  0  0
 16 19  2  0  0  0  0
 17 11  1  0  0  0  0
 18 12  1  0  0  0  0
 19 13  1  0  0  0  0
 20  7  1  0  0  0  0
 21 16  1  0  0  0  0
 22 10  1  0  0  0  0
 23 24  1  0  0  0  0
 24 25  1  0  0  0  0
 25 22  1  0  0  0  0
 10  8  2  0  0  0  0
  3  5  1  0  0  0  0
 14 16  1  0  0  0  0
M  END
>  <Code> (P7114510209)
P7114510209

>  <Number of H-Donors> (P7114510209)
3

>  <Number of H-Acceptors> (P7114510209)
5

>  <Number of Rotatable bonds> (P7114510209)
5

>  <CLogP> (P7114510209)
1.700000000000000e+000

>  <Number of Rings> (P7114510209)
3

>  <PSA> (P7114510209)
1.061000000000000e+002

$$$$

  -ISIS-  11102212342D

 24 26  0  0  0  0  0  0  0  0999 V2000
    0.7792   -2.3875    0.0000 C   0  0  0  0  0  0  0  0  0  0  0  0
    0.7792   -1.1542    0.0000 N   0  0  3  0  0  0  0  0  0  0  0  0
    2.9500   -1.1542    0.0000 C   0  0  0  0  0  0  0  0  0  0  0  0
   -0.3958   -2.7792    0.0000 N   0  0  0  0  0  0  0  0  0  0  0  0
    1.8542   -0.5500    0.0000 C   0  0  3  0  0  0  0  0  0  0  0  0
    1.8542   -3.0167    0.0000 N   0  0  0  0  0  0  0  0  0  0  0  0
    2.9500   -2.3875    0.0000 C   0  0  0  0  0  0  0  0  0  0  0  0
   -0.3958   -0.7875    0.0000 N   0  0  0  0  0  0  0  0  0  0  0  0
   -1.1125   -1.8000    0.0000 C   0  0  0  0  0  0  0  0  0  0  0  0
    1.8542    0.7125    0.0000 C   0  0  0  0  0  0  0  0  0  0  0  0
    4.0500   -0.5667    0.0000 C   0  0  0  0  0  0  0  0  0  0  0  0
    0.7792    1.3333    0.0000 C   0  0  0  0  0  0  0  0  0  0  0  0
    5.1167   -1.2042    0.0000 O   0  0  0  0  0  0  0  0  0  0  0  0
    4.0792    0.6833    0.0000 N   0  0  0  0  0  0  0  0  0  0  0  0
    4.0500   -3.0000    0.0000 C   0  0  0  0  0  0  0  0  0  0  0  0
   -0.2958    0.7000    0.0000 F   0  0  0  0  0  0  0  0  0  0  0  0
    2.9500    1.3625    0.0000 C   0  0  0  0  0  0  0  0  0  0  0  0
   -2.3833   -1.8292    0.0000 C   0  0  0  0  0  0  0  0  0  0  0  0
   -4.9083    0.2500    0.0000 O   0  0  0  0  0  0  0  0  0  0  0  0
    0.7792    2.5958    0.0000 C   0  0  0  0  0  0  0  0  0  0  0  0
   -4.2708   -0.8042    0.0000 C   0  0  0  0  0  0  0  0  0  0  0  0
   -3.0208   -0.7667    0.0000 C   0  0  0  0  0  0  0  0  0  0  0  0
    2.9500    2.5958    0.0000 C   0  0  0  0  0  0  0  0  0  0  0  0
    1.8542    3.2083    0.0000 C   0  0  0  0  0  0  0  0  0  0  0  0
  2  1  1  0  0  0  0
  3  7  2  0  0  0  0
  4  1  2  0  0  0  0
  5  2  1  0  0  0  0
  6  1  1  0  0  0  0
  7  6  1  0  0  0  0
  8  2  1  0  0  0  0
  9  4  1  0  0  0  0
 10  5  1  0  0  0  0
 11  3  1  0  0  0  0
 12 10  1  0  0  0  0
 13 11  2  0  0  0  0
 14 11  1  0  0  0  0
 15  7  1  0  0  0  0
 16 12  1  0  0  0  0
 17 10  2  0  0  0  0
 18  9  1  0  0  0  0
 19 21  1  0  0  0  0
 20 12  2  0  0  0  0
 21 22  1  0  0  0  0
 22 18  1  0  0  0  0
 23 17  1  0  0  0  0
 24 23  2  0  0  0  0
  8  9  2  0  0  0  0
  5  3  1  0  0  0  0
 24 20  1  0  0  0  0
M  END
>  <Code> (P7114510205)
P7114510205

>  <Number of H-Donors> (P7114510205)
3

>  <Number of H-Acceptors> (P7114510205)
5

>  <Number of Rotatable bonds> (P7114510205)
5

>  <CLogP> (P7114510205)
6.000000000000000e-001

>  <Number of Rings> (P7114510205)
3

>  <PSA> (P7114510205)
1.061000000000000e+002

$$$$

  -ISIS-  11102212342D

 19 19  0  0  0  0  0  0  0  0999 V2000
    0.4167   -1.5667    0.0000 C   0  0  0  0  0  0  0  0  0  0  0  0
    1.5292   -2.1875    0.0000 N   0  3  0  0  0  0  0  0  0  0  0  0
    0.4167   -0.3167    0.0000 C   0  0  0  0  0  0  0  0  0  0  0  0
    1.5292    0.3333    0.0000 S   0  0  3  0  0  0  0  0  0  0  0  0
   -2.8125   -2.1667    0.0000 C   0  0  3  0  0  0  0  0  0  0  0  0
   -0.6500   -2.1875    0.0000 C   0  0  0  0  0  0  0  0  0  0  0  0
    1.5042    1.5958    0.0000 C   0  0  0  0  0  0  0  0  0  0  0  0
   -1.7333   -1.5542    0.0000 C   0  0  0  0  0  0  0  0  0  0  0  0
   -0.6500    0.3000    0.0000 C   0  0  0  0  0  0  0  0  0  0  0  0
    2.6000    2.2125    0.0000 C   0  0  0  0  0  0  0  0  0  0  0  0
    1.5292   -3.4375    0.0000 O   0  5  0  0  0  0  0  0  0  0  0  0
    2.6000   -1.5667    0.0000 O   0  0  0  0  0  0  0  0  0  0  0  0
    2.6167   -0.2542    0.0000 O   0  0  0  0  0  0  0  0  0  0  0  0
   -1.7333   -0.3167    0.0000 C   0  0  0  0  0  0  0  0  0  0  0  0
    2.6000    3.4458    0.0000 O   0  0  0  0  0  0  0  0  0  0  0  0
   -2.2208   -3.2500    0.0000 F   0  0  0  0  0  0  0  0  0  0  0  0
   -3.9208   -2.7667    0.0000 F   0  0  0  0  0  0  0  0  0  0  0  0
   -3.3958   -1.1000    0.0000 F   0  0  0  0  0  0  0  0  0  0  0  0
    3.6667    1.5958    0.0000 O   0  0  0  0  0  0  0  0  0  0  0  0
  2  1  1  0  0  0  0
  3  1  2  0  0  0  0
  4  3  1  0  0  0  0
  5  8  1  0  0  0  0
  6  1  1  0  0  0  0
  7  4  1  0  0  0  0
  8  6  2  0  0  0  0
  9  3  1  0  0  0  0
 10  7  1  0  0  0  0
 11  2  1  0  0  0  0
 12  2  2  0  0  0  0
 13  4  2  0  0  0  0
 14  8  1  0  0  0  0
 15 10  2  0  0  0  0
 16  5  1  0  0  0  0
 17  5  1  0  0  0  0
 18  5  1  0  0  0  0
 19 10  1  0  0  0  0
 14  9  2  0  0  0  0
M  CHG  2   2   1  11  -1
M  END
>  <Code> (P7113250022)
P7113250022

>  <Number of H-Donors> (P7113250022)
1

>  <Number of H-Acceptors> (P7113250022)
5

>  <Number of Rotatable bonds> (P7113250022)
5

>  <CLogP> (P7113250022)
1.600000000000000e+000

>  <Number of Rings> (P7113250022)
1

>  <PSA> (P7113250022)
1.194000000000000e+002

$$$$

  -ISIS-  11102212342D

 21 23  0  0  0  0  0  0  0  0999 V2000
   -1.0125    1.5125    0.0000 C   0  0  0  0  0  0  0  0  0  0  0  0
   -1.3500    0.3500    0.0000 C   0  0  0  0  0  0  0  0  0  0  0  0
    0.2000    1.5125    0.0000 N   0  0  0  0  0  0  0  0  0  0  0  0
    0.5667    0.3958    0.0000 C   0  0  0  0  0  0  0  0  0  0  0  0
   -0.3958   -0.3167    0.0000 O   0  0  0  0  0  0  0  0  0  0  0  0
   -1.7333    2.4625    0.0000 C   0  0  0  0  0  0  0  0  0  0  0  0
   -2.5000   -0.0292    0.0000 N   0  0  0  0  0  0  0  0  0  0  0  0
   -2.4833    3.4208    0.0000 N   0  0  0  0  0  0  0  0  0  0  0  0
    1.7292    0.0708    0.0000 C   0  0  0  0  0  0  0  0  0  0  0  0
    2.0542   -1.0667    0.0000 C   0  0  0  0  0  0  0  0  0  0  0  0
    2.5875    0.9458    0.0000 C   0  0  0  0  0  0  0  0  0  0  0  0
    4.0542   -0.5167    0.0000 C   0  0  0  0  0  0  0  0  0  0  0  0
   -2.7208   -1.2042    0.0000 C   0  0  3  0  0  0  0  0  0  0  0  0
    3.2167   -1.3875    0.0000 C   0  0  0  0  0  0  0  0  0  0  0  0
    3.7375    0.6208    0.0000 C   0  0  0  0  0  0  0  0  0  0  0  0
    5.2167   -0.7875    0.0000 Cl  0  0  0  0  0  0  0  0  0  0  0  0
   -3.8500   -1.6000    0.0000 C   0  0  0  0  0  0  0  0  0  0  0  0
   -1.8208   -2.0000    0.0000 C   0  0  0  0  0  0  0  0  0  0  0  0
   -4.0833   -2.7792    0.0000 C   0  0  0  0  0  0  0  0  0  0  0  0
   -2.0625   -3.1792    0.0000 C   0  0  0  0  0  0  0  0  0  0  0  0
   -3.1708   -3.5667    0.0000 C   0  0  0  0  0  0  0  0  0  0  0  0
  2  1  2  0  0  0  0
  3  1  1  0  0  0  0
  4  3  2  0  0  0  0
  5  2  1  0  0  0  0
  6  1  1  0  0  0  0
  7  2  1  0  0  0  0
  8  6  3  0  0  0  0
  9  4  1  0  0  0  0
 10  9  2  0  0  0  0
 11  9  1  0  0  0  0
 12 15  1  0  0  0  0
 13  7  1  0  0  0  0
 14 10  1  0  0  0  0
 15 11  2  0  0  0  0
 16 12  1  0  0  0  0
 17 13  1  0  0  0  0
 18 13  1  0  0  0  0
 19 17  1  0  0  0  0
 20 18  1  0  0  0  0
 21 20  1  0  0  0  0
  5  4  1  0  0  0  0
 12 14  2  0  0  0  0
 19 21  1  0  0  0  0
M  END
>  <Code> (P7111610067)
P7111610067

>  <Number of H-Donors> (P7111610067)
1

>  <Number of H-Acceptors> (P7111610067)
3

>  <Number of Rotatable bonds> (P7111610067)
3

>  <CLogP> (P7111610067)
4.400000000000000e+000

>  <Number of Rings> (P7111610067)
3

>  <PSA> (P7111610067)
6.189999999999999e+001

$$$$

  -ISIS-  11102212342D

 21 23  0  0  0  0  0  0  0  0999 V2000
   -1.0125    1.5125    0.0000 C   0  0  0  0  0  0  0  0  0  0  0  0
   -1.3500    0.3500    0.0000 C   0  0  0  0  0  0  0  0  0  0  0  0
    0.2000    1.5125    0.0000 N   0  0  0  0  0  0  0  0  0  0  0  0
    0.5667    0.3958    0.0000 C   0  0  0  0  0  0  0  0  0  0  0  0
   -0.3958   -0.3167    0.0000 O   0  0  0  0  0  0  0  0  0  0  0  0
   -1.7333    2.4625    0.0000 C   0  0  0  0  0  0  0  0  0  0  0  0
   -2.5000   -0.0292    0.0000 N   0  0  0  0  0  0  0  0  0  0  0  0
   -2.4833    3.4208    0.0000 N   0  0  0  0  0  0  0  0  0  0  0  0
    1.7292    0.0708    0.0000 C   0  0  0  0  0  0  0  0  0  0  0  0
    2.0542   -1.0667    0.0000 C   0  0  0  0  0  0  0  0  0  0  0  0
    2.5875    0.9458    0.0000 C   0  0  0  0  0  0  0  0  0  0  0  0
   -2.7208   -1.2042    0.0000 C   0  0  3  0  0  0  0  0  0  0  0  0
    3.7375    0.6208    0.0000 C   0  0  0  0  0  0  0  0  0  0  0  0
    3.2167   -1.3875    0.0000 C   0  0  0  0  0  0  0  0  0  0  0  0
    4.0542   -0.5167    0.0000 C   0  0  0  0  0  0  0  0  0  0  0  0
    5.2167   -0.7875    0.0000 C   0  0  0  0  0  0  0  0  0  0  0  0
   -3.8500   -1.6000    0.0000 C   0  0  0  0  0  0  0  0  0  0  0  0
   -1.8208   -2.0000    0.0000 C   0  0  0  0  0  0  0  0  0  0  0  0
   -4.0833   -2.7792    0.0000 C   0  0  0  0  0  0  0  0  0  0  0  0
   -2.0625   -3.1792    0.0000 C   0  0  0  0  0  0  0  0  0  0  0  0
   -3.1708   -3.5667    0.0000 C   0  0  0  0  0  0  0  0  0  0  0  0
  2  1  2  0  0  0  0
  3  1  1  0  0  0  0
  4  3  2  0  0  0  0
  5  2  1  0  0  0  0
  6  1  1  0  0  0  0
  7  2  1  0  0  0  0
  8  6  3  0  0  0  0
  9  4  1  0  0  0  0
 10  9  2  0  0  0  0
 11  9  1  0  0  0  0
 12  7  1  0  0  0  0
 13 11  2  0  0  0  0
 14 10  1  0  0  0  0
 15 13  1  0  0  0  0
 16 15  1  0  0  0  0
 17 12  1  0  0  0  0
 18 12  1  0  0  0  0
 19 17  1  0  0  0  0
 20 18  1  0  0  0  0
 21 20  1  0  0  0  0
  4  5  1  0  0  0  0
 14 15  2  0  0  0  0
 21 19  1  0  0  0  0
M  END
>  <Code> (P7111610066)
P7111610066

>  <Number of H-Donors> (P7111610066)
1

>  <Number of H-Acceptors> (P7111610066)
3

>  <Number of Rotatable bonds> (P7111610066)
3

>  <CLogP> (P7111610066)
4.200000000000000e+000

>  <Number of Rings> (P7111610066)
3

>  <PSA> (P7111610066)
6.189999999999999e+001

$$$$

  -ISIS-  11102212342D

 20 22  0  0  0  0  0  0  0  0999 V2000
   -1.0125    1.5125    0.0000 C   0  0  0  0  0  0  0  0  0  0  0  0
   -1.3500    0.3500    0.0000 C   0  0  0  0  0  0  0  0  0  0  0  0
    0.2000    1.5125    0.0000 N   0  0  0  0  0  0  0  0  0  0  0  0
    0.5667    0.3958    0.0000 C   0  0  0  0  0  0  0  0  0  0  0  0
   -0.3958   -0.3167    0.0000 O   0  0  0  0  0  0  0  0  0  0  0  0
   -1.7333    2.4625    0.0000 C   0  0  0  0  0  0  0  0  0  0  0  0
   -2.5000   -0.0292    0.0000 N   0  0  0  0  0  0  0  0  0  0  0  0
   -2.4833    3.4208    0.0000 N   0  0  0  0  0  0  0  0  0  0  0  0
    1.7292    0.0708    0.0000 C   0  0  0  0  0  0  0  0  0  0  0  0
   -2.7208   -1.2042    0.0000 C   0  0  3  0  0  0  0  0  0  0  0  0
    2.0542   -1.0667    0.0000 C   0  0  0  0  0  0  0  0  0  0  0  0
    2.5875    0.9458    0.0000 C   0  0  0  0  0  0  0  0  0  0  0  0
   -3.8500   -1.6000    0.0000 C   0  0  0  0  0  0  0  0  0  0  0  0
   -1.8208   -2.0000    0.0000 C   0  0  0  0  0  0  0  0  0  0  0  0
    3.2167   -1.3875    0.0000 C   0  0  0  0  0  0  0  0  0  0  0  0
    3.7375    0.6208    0.0000 C   0  0  0  0  0  0  0  0  0  0  0  0
   -4.0833   -2.7792    0.0000 C   0  0  0  0  0  0  0  0  0  0  0  0
   -2.0625   -3.1792    0.0000 C   0  0  0  0  0  0  0  0  0  0  0  0
    4.0542   -0.5167    0.0000 C   0  0  0  0  0  0  0  0  0  0  0  0
   -3.1708   -3.5667    0.0000 C   0  0  0  0  0  0  0  0  0  0  0  0
  2  1  2  0  0  0  0
  3  1  1  0  0  0  0
  4  3  2  0  0  0  0
  5  2  1  0  0  0  0
  6  1  1  0  0  0  0
  7  2  1  0  0  0  0
  8  6  3  0  0  0  0
  9  4  1  0  0  0  0
 10  7  1  0  0  0  0
 11  9  2  0  0  0  0
 12  9  1  0  0  0  0
 13 10  1  0  0  0  0
 14 10  1  0  0  0  0
 15 11  1  0  0  0  0
 16 12  2  0  0  0  0
 17 13  1  0  0  0  0
 18 14  1  0  0  0  0
 19 16  1  0  0  0  0
 20 18  1  0  0  0  0
  4  5  1  0  0  0  0
 15 19  2  0  0  0  0
 20 17  1  0  0  0  0
M  END
>  <Code> (P7111610064)
P7111610064

>  <Number of H-Donors> (P7111610064)
1

>  <Number of H-Acceptors> (P7111610064)
3

>  <Number of Rotatable bonds> (P7111610064)
3

>  <CLogP> (P7111610064)
3.800000000000000e+000

>  <Number of Rings> (P7111610064)
3

>  <PSA> (P7111610064)
6.189999999999999e+001

$$$$

  -ISIS-  11102212342D

 21 23  0  0  0  0  0  0  0  0999 V2000
    6.4417   -3.6042    0.0000 C   0  0  0  0  0  0  0  0  0  0  0  0
    7.0875   -3.9792    0.0000 C   0  0  3  0  0  0  0  0  0  0  0  0
    5.7875   -3.9792    0.0000 C   0  0  0  0  0  0  0  0  0  0  0  0
    6.4417   -2.8542    0.0000 C   0  0  0  0  0  0  0  0  0  0  0  0
    5.1417   -3.6042    0.0000 C   0  0  0  0  0  0  0  0  0  0  0  0
    5.7875   -2.4750    0.0000 C   0  0  0  0  0  0  0  0  0  0  0  0
    5.1417   -2.8542    0.0000 C   0  0  0  0  0  0  0  0  0  0  0  0
    7.7417   -3.6125    0.0000 N   0  0  0  0  0  0  0  0  0  0  0  0
    7.0792   -4.7292    0.0000 C   0  0  0  0  0  0  0  0  0  0  0  0
    6.4292   -5.1000    0.0000 C   0  0  0  0  0  0  0  0  0  0  0  0
    7.7292   -5.1042    0.0000 C   0  0  0  0  0  0  0  0  0  0  0  0
    7.0750   -6.2292    0.0000 C   0  0  0  0  0  0  0  0  0  0  0  0
    7.7417   -2.8542    0.0000 C   0  0  0  0  0  0  0  0  0  0  0  0
    4.4917   -3.9792    0.0000 O   0  0  0  0  0  0  0  0  0  0  0  0
    4.4917   -2.4792    0.0000 O   0  0  0  0  0  0  0  0  0  0  0  0
    7.7292   -5.8542    0.0000 C   0  0  0  0  0  0  0  0  0  0  0  0
    6.4250   -5.8500    0.0000 C   0  0  0  0  0  0  0  0  0  0  0  0
    7.0917   -2.4750    0.0000 C   0  0  0  0  0  0  0  0  0  0  0  0
    7.0667   -6.9792    0.0000 O   0  0  0  0  0  0  0  0  0  0  0  0
    3.8417   -2.8542    0.0000 C   0  0  0  0  0  0  0  0  0  0  0  0
    4.4917   -4.7292    0.0000 C   0  0  0  0  0  0  0  0  0  0  0  0
  2  1  1  0  0  0  0
  3  1  1  0  0  0  0
  4  1  2  0  0  0  0
  5  3  2  0  0  0  0
  6  4  1  0  0  0  0
  7  6  2  0  0  0  0
  8  2  1  0  0  0  0
  9  2  1  0  0  0  0
 10  9  2  0  0  0  0
 11  9  1  0  0  0  0
 12 16  1  0  0  0  0
 13 18  1  0  0  0  0
 14  5  1  0  0  0  0
 15  7  1  0  0  0  0
 16 11  2  0  0  0  0
 17 10  1  0  0  0  0
 18  4  1  0  0  0  0
 19 12  1  0  0  0  0
 20 15  1  0  0  0  0
 21 14  1  0  0  0  0
 13  8  1  0  0  0  0
  7  5  1  0  0  0  0
 12 17  2  0  0  0  0
M  END
>  <Code> (P7110952686)
P7110952686

>  <Number of H-Donors> (P7110952686)
2

>  <Number of H-Acceptors> (P7110952686)
4

>  <Number of Rotatable bonds> (P7110952686)
3

>  <CLogP> (P7110952686)
2.800000000000000e+000

>  <Number of Rings> (P7110952686)
3

>  <PSA> (P7110952686)
5.070000000000000e+001

$$$$

  -ISIS-  11102212342D

 21 22  0  0  0  0  0  0  0  0999 V2000
    2.3792   -4.5792    0.0000 N   0  0  0  0  0  0  0  0  0  0  0  0
    2.4750   -5.1667    0.0000 C   0  0  0  0  0  0  0  0  0  0  0  0
    1.8417   -4.3750    0.0000 C   0  0  0  0  0  0  0  0  0  0  0  0
    2.0167   -5.5375    0.0000 N   0  0  0  0  0  0  0  0  0  0  0  0
    1.3792   -4.7375    0.0000 C   0  0  0  0  0  0  0  0  0  0  0  0
    4.4875   -4.8667    0.0000 C   0  0  0  0  0  0  0  0  0  0  0  0
    5.0292   -5.0792    0.0000 C   0  0  0  0  0  0  0  0  0  0  0  0
    4.0292   -5.2292    0.0000 C   0  0  0  0  0  0  0  0  0  0  0  0
    5.4917   -4.7167    0.0000 C   0  0  0  0  0  0  0  0  0  0  0  0
    3.0167   -5.3875    0.0000 S   0  0  0  0  0  0  0  0  0  0  0  0
    1.4667   -5.3167    0.0000 C   0  0  0  0  0  0  0  0  0  0  0  0
    5.4042   -4.1292    0.0000 C   0  0  0  0  0  0  0  0  0  0  0  0
    3.4792   -5.0167    0.0000 C   0  0  0  0  0  0  0  0  0  0  0  0
    4.3917   -4.2917    0.0000 C   0  0  0  0  0  0  0  0  0  0  0  0
    4.1167   -5.8167    0.0000 O   0  0  0  0  0  0  0  0  0  0  0  0
    4.8542   -3.9250    0.0000 C   0  0  0  0  0  0  0  0  0  0  0  0
    1.7542   -3.7917    0.0000 O   0  0  0  0  0  0  0  0  0  0  0  0
    5.8625   -3.7667    0.0000 O   0  0  0  0  0  0  0  0  0  0  0  0
    6.0375   -4.9292    0.0000 C   0  0  0  0  0  0  0  0  0  0  0  0
    1.0042   -5.6875    0.0000 C   0  0  0  0  0  0  0  0  0  0  0  0
    6.4042   -3.9792    0.0000 C   0  0  0  0  0  0  0  0  0  0  0  0
  2  1  1  0  0  0  0
  3  1  2  0  0  0  0
  4  2  2  0  0  0  0
  5  3  1  0  0  0  0
  6  8  1  0  0  0  0
  7  6  2  0  0  0  0
  8 13  1  0  0  0  0
  9  7  1  0  0  0  0
 10  2  1  0  0  0  0
 11  5  2  0  0  0  0
 12 16  1  0  0  0  0
 13 10  1  0  0  0  0
 14  6  1  0  0  0  0
 15  8  2  0  0  0  0
 16 14  2  0  0  0  0
 17  3  1  0  0  0  0
 18 12  1  0  0  0  0
 19  9  1  0  0  0  0
 20 11  1  0  0  0  0
 21 18  1  0  0  0  0
 11  4  1  0  0  0  0
 12  9  2  0  0  0  0
M  END
>  <Code> (P7110940339)
P7110940339

>  <Number of H-Donors> (P7110940339)
1

>  <Number of H-Acceptors> (P7110940339)
6

>  <Number of Rotatable bonds> (P7110940339)
5

>  <CLogP> (P7110940339)
3.400000000000000e+000

>  <Number of Rings> (P7110940339)
2

>  <PSA> (P7110940339)
9.760000000000002e+001

$$$$

  -ISIS-  11102212342D

 25 27  0  0  0  0  0  0  0  0999 V2000
    4.3000   -6.1542    0.0000 C   0  0  0  0  0  0  0  0  0  0  0  0
    5.2250   -5.4417    0.0000 N   0  0  0  0  0  0  0  0  0  0  0  0
    4.8375   -6.3792    0.0000 N   0  0  0  0  0  0  0  0  0  0  0  0
    4.6792   -5.2167    0.0000 C   0  0  0  0  0  0  0  0  0  0  0  0
    4.2167   -5.5750    0.0000 C   0  0  0  0  0  0  0  0  0  0  0  0
    5.3042   -6.0250    0.0000 C   0  0  0  0  0  0  0  0  0  0  0  0
    3.8417   -6.5167    0.0000 N   0  0  0  0  0  0  0  0  0  0  0  0
    3.6792   -5.3500    0.0000 C   0  0  0  0  0  0  0  0  0  0  0  0
    5.8417   -6.2500    0.0000 S   0  0  0  0  0  0  0  0  0  0  0  0
    6.8542   -6.1167    0.0000 C   0  0  0  0  0  0  0  0  0  0  0  0
    3.2167   -5.7167    0.0000 C   0  0  0  0  0  0  0  0  0  0  0  0
    3.3000   -6.2917    0.0000 C   0  0  0  0  0  0  0  0  0  0  0  0
    7.3167   -5.7542    0.0000 C   0  0  0  0  0  0  0  0  0  0  0  0
    6.3125   -5.8917    0.0000 C   0  0  0  0  0  0  0  0  0  0  0  0
    6.9292   -6.6917    0.0000 O   0  0  0  0  0  0  0  0  0  0  0  0
    4.6042   -4.6292    0.0000 O   0  0  0  0  0  0  0  0  0  0  0  0
    7.8625   -5.9792    0.0000 C   0  0  0  0  0  0  0  0  0  0  0  0
    7.2417   -5.1792    0.0000 C   0  0  0  0  0  0  0  0  0  0  0  0
    8.2500   -5.0417    0.0000 C   0  0  0  0  0  0  0  0  0  0  0  0
    7.7042   -4.8167    0.0000 C   0  0  0  0  0  0  0  0  0  0  0  0
    8.3292   -5.6250    0.0000 C   0  0  0  0  0  0  0  0  0  0  0  0
    3.6000   -4.7667    0.0000 C   0  0  0  0  0  0  0  0  0  0  0  0
    8.7167   -4.6792    0.0000 O   0  0  0  0  0  0  0  0  0  0  0  0
    2.8375   -6.6542    0.0000 C   0  0  0  0  0  0  0  0  0  0  0  0
    9.2625   -4.9042    0.0000 C   0  0  0  0  0  0  0  0  0  0  0  0
  2  4  2  0  0  0  0
  3  1  1  0  0  0  0
  4  5  1  0  0  0  0
  5  1  2  0  0  0  0
  6  3  2  0  0  0  0
  7  1  1  0  0  0  0
  8  5  1  0  0  0  0
  9  6  1  0  0  0  0
 10 14  1  0  0  0  0
 11 12  1  0  0  0  0
 12  7  2  0  0  0  0
 13 10  1  0  0  0  0
 14  9  1  0  0  0  0
 15 10  2  0  0  0  0
 16  4  1  0  0  0  0
 17 13  2  0  0  0  0
 18 13  1  0  0  0  0
 19 20  1  0  0  0  0
 20 18  2  0  0  0  0
 21 17  1  0  0  0  0
 22  8  1  0  0  0  0
 23 19  1  0  0  0  0
 24 12  1  0  0  0  0
 25 23  1  0  0  0  0
  2  6  1  0  0  0  0
  8 11  2  0  0  0  0
 19 21  2  0  0  0  0
M  END
>  <Code> (P7110940319)
P7110940319

>  <Number of H-Donors> (P7110940319)
1

>  <Number of H-Acceptors> (P7110940319)
7

>  <Number of Rotatable bonds> (P7110940319)
5

>  <CLogP> (P7110940319)
3.800000000000000e+000

>  <Number of Rings> (P7110940319)
3

>  <PSA> (P7110940319)
1.105000000000000e+002

$$$$

  -ISIS-  11102212342D

 23 26  0  0  0  0  0  0  0  0999 V2000
   -3.0125   -1.4000    0.0000 N   0  0  3  0  0  0  0  0  0  0  0  0
   -3.0125    0.0708    0.0000 C   0  0  0  0  0  0  0  0  0  0  0  0
    3.6792   -0.7292    0.0000 N   0  0  3  0  0  0  0  0  0  0  0  0
   -0.8000   -0.6375    0.0000 C   0  0  0  0  0  0  0  0  0  0  0  0
   -1.6458   -1.8292    0.0000 C   0  0  0  0  0  0  0  0  0  0  0  0
   -1.6458    0.5208    0.0000 N   0  0  0  0  0  0  0  0  0  0  0  0
    2.8667   -1.9000    0.0000 C   0  0  0  0  0  0  0  0  0  0  0  0
    3.7667   -3.0792    0.0000 N   0  0  0  0  0  0  0  0  0  0  0  0
    5.1292   -2.5542    0.0000 N   0  0  0  0  0  0  0  0  0  0  0  0
    5.0667   -1.0792    0.0000 N   0  0  0  0  0  0  0  0  0  0  0  0
   -4.4208    0.5000    0.0000 S   0  0  0  0  0  0  0  0  0  0  0  0
   -4.3500   -1.8667    0.0000 C   0  0  0  0  0  0  0  0  0  0  0  0
   -5.2708   -0.6792    0.0000 C   0  0  0  0  0  0  0  0  0  0  0  0
    1.4167   -1.9000    0.0000 S   0  0  0  0  0  0  0  0  0  0  0  0
    0.6875   -0.6375    0.0000 C   0  0  0  0  0  0  0  0  0  0  0  0
    3.1792    0.6333    0.0000 C   0  0  0  0  0  0  0  0  0  0  0  0
   -1.1958   -3.2042    0.0000 Br  0  0  0  0  0  0  0  0  0  0  0  0
   -4.7208   -3.2667    0.0000 C   0  0  0  0  0  0  0  0  0  0  0  0
    1.7042    0.8500    0.0000 C   0  0  0  0  0  0  0  0  0  0  0  0
    4.1167    1.7500    0.0000 C   0  0  0  0  0  0  0  0  0  0  0  0
    3.5792    3.1458    0.0000 C   0  0  0  0  0  0  0  0  0  0  0  0
    1.2042    2.2333    0.0000 C   0  0  0  0  0  0  0  0  0  0  0  0
    2.1542    3.3833    0.0000 C   0  0  0  0  0  0  0  0  0  0  0  0
  2  1  1  0  0  0  0
  3  7  1  0  0  0  0
  4  5  2  0  0  0  0
  5  1  1  0  0  0  0
  6  2  2  0  0  0  0
  7 14  1  0  0  0  0
  8  7  2  0  0  0  0
  9  8  1  0  0  0  0
 10  3  1  0  0  0  0
 11  2  1  0  0  0  0
 12  1  1  0  0  0  0
 13 12  2  0  0  0  0
 14 15  1  0  0  0  0
 15  4  1  0  0  0  0
 16  3  1  0  0  0  0
 17  5  1  0  0  0  0
 18 12  1  0  0  0  0
 19 16  1  0  0  0  0
 20 16  2  0  0  0  0
 21 20  1  0  0  0  0
 22 19  2  0  0  0  0
 23 21  2  0  0  0  0
 11 13  1  0  0  0  0
  6  4  1  0  0  0  0
  9 10  2  0  0  0  0
 23 22  1  0  0  0  0
M  END
>  <Code> (P7110320053)
P7110320053

>  <Number of H-Donors> (P7110320053)
0

>  <Number of H-Acceptors> (P7110320053)
5

>  <Number of Rotatable bonds> (P7110320053)
4

>  <CLogP> (P7110320053)
3.300000000000000e+000

>  <Number of Rings> (P7110320053)
4

>  <PSA> (P7110320053)
1.144000000000000e+002

$$$$

  -ISIS-  11102212342D

 28 31  0  0  0  0  0  0  0  0999 V2000
    1.6917   -0.7875    0.0000 N   0  0  3  0  0  0  0  0  0  0  0  0
    2.6417   -1.1042    0.0000 C   0  0  0  0  0  0  0  0  0  0  0  0
    1.5000    0.1958    0.0000 C   0  0  0  0  0  0  0  0  0  0  0  0
    2.2500    0.8583    0.0000 N   0  0  0  0  0  0  0  0  0  0  0  0
    3.3917   -0.4417    0.0000 C   0  0  0  0  0  0  0  0  0  0  0  0
    1.1042   -1.5917    0.0000 C   0  0  0  0  0  0  0  0  0  0  0  0
    2.6292   -2.1042    0.0000 N   0  0  0  0  0  0  0  0  0  0  0  0
    3.1792    0.5458    0.0000 C   0  0  0  0  0  0  0  0  0  0  0  0
    1.6875   -2.4042    0.0000 N   0  0  0  0  0  0  0  0  0  0  0  0
    0.1000   -1.5875    0.0000 S   0  0  0  0  0  0  0  0  0  0  0  0
   -1.3958   -0.7167    0.0000 C   0  0  0  0  0  0  0  0  0  0  0  0
   -1.8958    0.1500    0.0000 N   0  0  0  0  0  0  0  0  0  0  0  0
    4.1750    0.7583    0.0000 C   0  0  0  0  0  0  0  0  0  0  0  0
   -1.8958   -1.5750    0.0000 O   0  0  0  0  0  0  0  0  0  0  0  0
   -0.3958   -0.7167    0.0000 C   0  0  0  0  0  0  0  0  0  0  0  0
   -2.8875    0.1583    0.0000 C   0  0  0  0  0  0  0  0  0  0  0  0
    0.5417    0.5000    0.0000 C   0  0  0  0  0  0  0  0  0  0  0  0
   -4.8833    0.1625    0.0000 C   0  0  0  0  0  0  0  0  0  0  0  0
   -3.3833   -0.7042    0.0000 C   0  0  0  0  0  0  0  0  0  0  0  0
   -3.3833    1.0333    0.0000 C   0  0  0  0  0  0  0  0  0  0  0  0
   -4.3750   -0.7042    0.0000 C   0  0  0  0  0  0  0  0  0  0  0  0
   -4.3750    1.0333    0.0000 C   0  0  0  0  0  0  0  0  0  0  0  0
    5.1167    0.4375    0.0000 C   0  0  0  0  0  0  0  0  0  0  0  0
    3.9667    1.7375    0.0000 C   0  0  0  0  0  0  0  0  0  0  0  0
   -5.8750    0.1750    0.0000 C   0  0  0  0  0  0  0  0  0  0  0  0
    5.8667    1.0958    0.0000 C   0  0  0  0  0  0  0  0  0  0  0  0
    4.7167    2.4083    0.0000 C   0  0  0  0  0  0  0  0  0  0  0  0
    5.6667    2.0875    0.0000 C   0  0  0  0  0  0  0  0  0  0  0  0
  2  1  1  0  0  0  0
  3  1  1  0  0  0  0
  4  3  2  0  0  0  0
  5  2  1  0  0  0  0
  6  1  1  0  0  0  0
  7  2  2  0  0  0  0
  8  4  1  0  0  0  0
  9  6  2  0  0  0  0
 10  6  1  0  0  0  0
 11 15  1  0  0  0  0
 12 11  1  0  0  0  0
 13  8  1  0  0  0  0
 14 11  2  0  0  0  0
 15 10  1  0  0  0  0
 16 12  1  0  0  0  0
 17  3  1  0  0  0  0
 18 22  2  0  0  0  0
 19 16  1  0  0  0  0
 20 16  2  0  0  0  0
 21 19  2  0  0  0  0
 22 20  1  0  0  0  0
 23 13  2  0  0  0  0
 24 13  1  0  0  0  0
 25 18  1  0  0  0  0
 26 23  1  0  0  0  0
 27 24  2  0  0  0  0
 28 27  1  0  0  0  0
  9  7  1  0  0  0  0
  5  8  2  0  0  0  0
 26 28  2  0  0  0  0
 18 21  1  0  0  0  0
M  END
>  <Code> (P7020721869)
P7020721869

>  <Number of H-Donors> (P7020721869)
1

>  <Number of H-Acceptors> (P7020721869)
5

>  <Number of Rotatable bonds> (P7020721869)
5

>  <CLogP> (P7020721869)
4.100000000000000e+000

>  <Number of Rings> (P7020721869)
4

>  <PSA> (P7020721869)
9.750000000000000e+001

$$$$

  -ISIS-  11102212342D

 17 19  0  0  0  0  0  0  0  0999 V2000
    4.1375   -4.4917    0.0000 C   0  0  0  0  0  0  0  0  0  0  0  0
    5.0042   -5.0000    0.0000 N   0  0  0  0  0  0  0  0  0  0  0  0
    3.2750   -4.9917    0.0000 C   0  0  0  0  0  0  0  0  0  0  0  0
    4.1375   -6.4917    0.0000 N   0  0  0  0  0  0  0  0  0  0  0  0
    3.2750   -5.9917    0.0000 C   0  0  0  0  0  0  0  0  0  0  0  0
    5.0042   -5.9792    0.0000 C   0  0  0  0  0  0  0  0  0  0  0  0
    4.1292   -3.4917    0.0000 N   0  0  0  0  0  0  0  0  0  0  0  0
    2.3167   -4.6875    0.0000 C   0  0  0  0  0  0  0  0  0  0  0  0
    5.0000   -2.9917    0.0000 C   0  0  3  0  0  0  0  0  0  0  0  0
    2.3167   -6.3000    0.0000 C   0  0  0  0  0  0  0  0  0  0  0  0
    5.8875   -6.4667    0.0000 C   0  0  0  0  0  0  0  0  0  0  0  0
    1.7375   -5.4917    0.0000 C   0  0  0  0  0  0  0  0  0  0  0  0
    5.8625   -3.4917    0.0000 C   0  0  0  0  0  0  0  0  0  0  0  0
    5.0000   -1.9917    0.0000 C   0  0  0  0  0  0  0  0  0  0  0  0
    5.8667   -1.4917    0.0000 C   0  0  0  0  0  0  0  0  0  0  0  0
    6.7292   -2.9917    0.0000 C   0  0  0  0  0  0  0  0  0  0  0  0
    6.7292   -2.0042    0.0000 C   0  0  0  0  0  0  0  0  0  0  0  0
  2  1  2  0  0  0  0
  3  1  1  0  0  0  0
  4  5  1  0  0  0  0
  5  3  2  0  0  0  0
  6  2  1  0  0  0  0
  7  1  1  0  0  0  0
  8  3  1  0  0  0  0
  9  7  1  0  0  0  0
 10  5  1  0  0  0  0
 11  6  1  0  0  0  0
 12  8  1  0  0  0  0
 13  9  1  0  0  0  0
 14  9  1  0  0  0  0
 15 14  1  0  0  0  0
 16 13  1  0  0  0  0
 17 15  1  0  0  0  0
  6  4  2  0  0  0  0
 10 12  1  0  0  0  0
 17 16  1  0  0  0  0
M  END
>  <Code> (P7020720954)
P7020720954

>  <Number of H-Donors> (P7020720954)
1

>  <Number of H-Acceptors> (P7020720954)
3

>  <Number of Rotatable bonds> (P7020720954)
2

>  <CLogP> (P7020720954)
2.800000000000000e+000

>  <Number of Rings> (P7020720954)
3

>  <PSA> (P7020720954)
3.780000000000000e+001

$$$$

  -ISIS-  11102212342D

 15 15  0  0  0  0  0  0  0  0999 V2000
    3.5792   -0.0542    0.0000 C   0  0  0  0  0  0  0  0  0  0  0  0
    4.2917    0.3458    0.0000 N   0  0  0  0  0  0  0  0  0  0  0  0
    3.5792   -0.8792    0.0000 C   0  0  0  0  0  0  0  0  0  0  0  0
    5.0167   -0.0667    0.0000 C   0  0  0  0  0  0  0  0  0  0  0  0
    5.0167   -0.8667    0.0000 N   0  0  0  0  0  0  0  0  0  0  0  0
    2.8667    0.3583    0.0000 N   0  0  0  0  0  0  0  0  0  0  0  0
    4.2917   -1.2792    0.0000 C   0  0  0  0  0  0  0  0  0  0  0  0
    5.4542    1.4375    0.0000 Cl  0  0  0  0  0  0  0  0  0  0  0  0
    2.1417   -0.0417    0.0000 C   0  0  3  0  0  0  0  0  0  0  0  0
    4.2917   -2.1042    0.0000 C   0  0  0  0  0  0  0  0  0  0  0  0
    2.1417   -0.8792    0.0000 C   0  0  0  0  0  0  0  0  0  0  0  0
    1.4292    0.3708    0.0000 C   0  0  0  0  0  0  0  0  0  0  0  0
    0.7167   -0.0417    0.0000 C   0  0  0  0  0  0  0  0  0  0  0  0
    1.4292   -1.2792    0.0000 C   0  0  0  0  0  0  0  0  0  0  0  0
    0.7042   -0.8667    0.0000 C   0  0  0  0  0  0  0  0  0  0  0  0
  2  1  2  0  0  0  0
  3  1  1  0  0  0  0
  4  2  1  0  0  0  0
  5  7  1  0  0  0  0
  6  1  1  0  0  0  0
  7  3  2  0  0  0  0
  9  6  1  0  0  0  0
 10  7  1  0  0  0  0
 11  9  1  0  0  0  0
 12  9  1  0  0  0  0
 13 12  1  0  0  0  0
 14 11  1  0  0  0  0
 15 14  1  0  0  0  0
  4  5  2  0  0  0  0
 15 13  1  0  0  0  0
M  END
>  <Code> (P7020720953)
P7020720953

>  <Saltdata> (P7020720953)
HCl

>  <Number of H-Donors> (P7020720953)
1

>  <Number of H-Acceptors> (P7020720953)
3

>  <Number of Rotatable bonds> (P7020720953)
2

>  <CLogP> (P7020720953)
2.400000000000000e+000

>  <Number of Rings> (P7020720953)
2

>  <PSA> (P7020720953)
3.780000000000000e+001

$$$$

  -ISIS-  11102212342D

 22 22  0  0  0  0  0  0  0  0999 V2000
    1.8292   -1.8667    0.0000 N   0  0  0  0  0  0  0  0  0  0  0  0
    2.2417   -1.1500    0.0000 C   0  0  0  0  0  0  0  0  0  0  0  0
    1.8167   -0.4292    0.0000 C   0  0  0  0  0  0  0  0  0  0  0  0
    1.0042   -1.8792    0.0000 C   0  0  0  0  0  0  0  0  0  0  0  0
    2.2167    0.2958    0.0000 C   0  0  0  0  0  0  0  0  0  0  0  0
    0.5917   -1.1667    0.0000 N   0  0  0  0  0  0  0  0  0  0  0  0
    1.0042   -0.4417    0.0000 C   0  0  0  0  0  0  0  0  0  0  0  0
    3.0667   -1.1417    0.0000 N   0  0  0  0  0  0  0  0  0  0  0  0
    4.7167   -1.1292    0.0000 N   0  0  0  0  0  0  0  0  0  0  0  0
    1.7792    1.0000    0.0000 O   0  0  0  0  0  0  0  0  0  0  0  0
    0.5917   -2.6042    0.0000 S   0  0  0  0  0  0  0  0  0  0  0  0
    3.4792   -1.8625    0.0000 C   0  0  0  0  0  0  0  0  0  0  0  0
    4.3167   -1.8542    0.0000 C   0  0  0  0  0  0  0  0  0  0  0  0
    3.0417    0.3333    0.0000 O   0  0  0  0  0  0  0  0  0  0  0  0
    4.9917    0.8750    0.0000 Cl  0  0  0  0  0  0  0  0  0  0  0  0
    5.5542   -1.1250    0.0000 C   0  0  0  0  0  0  0  0  0  0  0  0
   -0.2333   -2.6125    0.0000 C   0  0  0  0  0  0  0  0  0  0  0  0
    3.4667   -0.3750    0.0000 C   0  0  0  0  0  0  0  0  0  0  0  0
    4.7292   -2.5667    0.0000 C   0  0  0  0  0  0  0  0  0  0  0  0
    4.3042   -0.3542    0.0000 C   0  0  0  0  0  0  0  0  0  0  0  0
    5.9667   -1.8417    0.0000 C   0  0  0  0  0  0  0  0  0  0  0  0
    5.5667   -2.5542    0.0000 C   0  0  0  0  0  0  0  0  0  0  0  0
  2  1  2  0  0  0  0
  3  2  1  0  0  0  0
  4  1  1  0  0  0  0
  5  3  1  0  0  0  0
  6  4  2  0  0  0  0
  7  6  1  0  0  0  0
  8  2  1  0  0  0  0
  9 13  1  0  0  0  0
 10  5  2  0  0  0  0
 11  4  1  0  0  0  0
 12  8  1  0  0  0  0
 13 12  1  0  0  0  0
 14  5  1  0  0  0  0
 16  9  2  0  0  0  0
 17 11  1  0  0  0  0
 18 14  1  0  0  0  0
 19 13  2  0  0  0  0
 20 18  1  0  0  0  0
 21 22  2  0  0  0  0
 22 19  1  0  0  0  0
  7  3  2  0  0  0  0
 16 21  1  0  0  0  0
M  END
>  <Code> (P7020720938)
P7020720938

>  <Saltdata> (P7020720938)
HCl

>  <Number of H-Donors> (P7020720938)
1

>  <Number of H-Acceptors> (P7020720938)
7

>  <Number of Rotatable bonds> (P7020720938)
7

>  <CLogP> (P7020720938)
2.200000000000000e+000

>  <Number of Rings> (P7020720938)
2

>  <PSA> (P7020720938)
1.023000000000000e+002

$$$$

  -ISIS-  11102212342D

 26 29  0  0  0  0  0  0  0  0999 V2000
    1.4375   -3.8667    0.0000 C   0  0  0  0  0  0  0  0  0  0  0  0
    2.1250   -3.3917    0.0000 C   0  0  0  0  0  0  0  0  0  0  0  0
    0.6292   -3.6667    0.0000 C   0  0  0  0  0  0  0  0  0  0  0  0
    0.1917   -4.3750    0.0000 C   0  0  0  0  0  0  0  0  0  0  0  0
    1.5000   -4.6917    0.0000 C   0  0  0  0  0  0  0  0  0  0  0  0
    0.7292   -5.0042    0.0000 S   0  0  0  0  0  0  0  0  0  0  0  0
    2.8667   -3.7667    0.0000 N   0  0  0  0  0  0  0  0  0  0  0  0
    2.1167   -2.5667    0.0000 N   0  0  0  0  0  0  0  0  0  0  0  0
    2.2417   -5.0542    0.0000 N   0  0  0  0  0  0  0  0  0  0  0  0
    4.9792   -2.5542    0.0000 C   0  0  0  0  0  0  0  0  0  0  0  0
    0.3250   -2.9000    0.0000 C   0  0  0  0  0  0  0  0  0  0  0  0
    4.2625   -2.1542    0.0000 C   0  0  0  0  0  0  0  0  0  0  0  0
    2.9375   -4.5917    0.0000 C   0  0  0  0  0  0  0  0  0  0  0  0
    2.8250   -2.1500    0.0000 C   0  0  0  0  0  0  0  0  0  0  0  0
    3.5500   -2.5667    0.0000 C   0  0  0  0  0  0  0  0  0  0  0  0
    5.6792   -2.1375    0.0000 O   0  0  0  0  0  0  0  0  0  0  0  0
   -0.4958   -2.7917    0.0000 C   0  0  0  0  0  0  0  0  0  0  0  0
    0.8292   -2.2542    0.0000 C   0  0  0  0  0  0  0  0  0  0  0  0
    4.9792   -3.3792    0.0000 O   0  0  0  0  0  0  0  0  0  0  0  0
    0.5250   -1.4917    0.0000 C   0  0  0  0  0  0  0  0  0  0  0  0
   -0.8000   -2.0375    0.0000 C   0  0  0  0  0  0  0  0  0  0  0  0
   -0.2958   -1.3792    0.0000 C   0  0  0  0  0  0  0  0  0  0  0  0
    4.2500   -1.3167    0.0000 C   0  0  0  0  0  0  0  0  0  0  0  0
    3.5292   -0.9125    0.0000 C   0  0  0  0  0  0  0  0  0  0  0  0
    2.8167   -1.3250    0.0000 C   0  0  0  0  0  0  0  0  0  0  0  0
   -0.6083   -0.6125    0.0000 C   0  0  0  0  0  0  0  0  0  0  0  0
  2  1  1  0  0  0  0
  3  1  1  0  0  0  0
  4  3  2  0  0  0  0
  5  1  2  0  0  0  0
  6  5  1  0  0  0  0
  7  2  2  0  0  0  0
  8  2  1  0  0  0  0
  9  5  1  0  0  0  0
 10 12  1  0  0  0  0
 11  3  1  0  0  0  0
 12 15  2  0  0  0  0
 13  9  2  0  0  0  0
 14  8  1  0  0  0  0
 15 14  1  0  0  0  0
 16 10  2  0  0  0  0
 17 11  1  0  0  0  0
 18 11  2  0  0  0  0
 19 10  1  0  0  0  0
 20 18  1  0  0  0  0
 21 17  2  0  0  0  0
 22 20  2  0  0  0  0
 23 24  2  0  0  0  0
 24 25  1  0  0  0  0
 25 14  2  0  0  0  0
 26 22  1  0  0  0  0
  6  4  1  0  0  0  0
 13  7  1  0  0  0  0
 21 22  1  0  0  0  0
 23 12  1  0  0  0  0
M  END
>  <Code> (P7020632942)
P7020632942

>  <Number of H-Donors> (P7020632942)
2

>  <Number of H-Acceptors> (P7020632942)
5

>  <Number of Rotatable bonds> (P7020632942)
4

>  <CLogP> (P7020632942)
4.200000000000000e+000

>  <Number of Rings> (P7020632942)
4

>  <PSA> (P7020632942)
1.034000000000000e+002

$$$$

  -ISIS-  11102212342D

 24 25  0  0  0  0  0  0  0  0999 V2000
    3.5042    2.6500    0.0000 S   0  0  3  0  0  0  0  0  0  0  0  0
    3.6375    0.7208    0.0000 S   0  0  3  0  0  0  0  0  0  0  0  0
    3.7042    1.9250    0.0000 C   0  0  3  0  0  0  0  0  0  0  0  0
    2.7542    2.6500    0.0000 C   0  0  0  0  0  0  0  0  0  0  0  0
    3.2292    1.3458    0.0000 C   0  0  0  0  0  0  0  0  0  0  0  0
    4.3625    0.9083    0.0000 C   0  0  0  0  0  0  0  0  0  0  0  0
    4.4042    1.6583    0.0000 C   0  0  3  0  0  0  0  0  0  0  0  0
    2.3792    3.3000    0.0000 C   0  0  0  0  0  0  0  0  0  0  0  0
    2.3792    2.0000    0.0000 C   0  0  0  0  0  0  0  0  0  0  0  0
    4.2417    2.7833    0.0000 O   0  0  0  0  0  0  0  0  0  0  0  0
    3.4417    3.4000    0.0000 O   0  0  0  0  0  0  0  0  0  0  0  0
    1.6292    3.3000    0.0000 C   0  0  0  0  0  0  0  0  0  0  0  0
    1.6292    2.0000    0.0000 C   0  0  0  0  0  0  0  0  0  0  0  0
    2.9667    0.3750    0.0000 O   0  0  0  0  0  0  0  0  0  0  0  0
    3.9042    0.0125    0.0000 O   0  0  0  0  0  0  0  0  0  0  0  0
    1.2542    2.6500    0.0000 C   0  0  0  0  0  0  0  0  0  0  0  0
    5.0292    2.0708    0.0000 N   0  0  0  0  0  0  0  0  0  0  0  0
    6.3292    2.1333    0.0000 C   0  0  0  0  0  0  0  0  0  0  0  0
    6.9917    1.7958    0.0000 C   0  0  0  0  0  0  0  0  0  0  0  0
    0.5042    2.6500    0.0000 O   0  0  0  0  0  0  0  0  0  0  0  0
    2.7542    1.3500    0.0000 C   0  0  0  0  0  0  0  0  0  0  0  0
    5.7000    1.7250    0.0000 C   0  0  0  0  0  0  0  0  0  0  0  0
    1.2542    3.9583    0.0000 C   0  0  0  0  0  0  0  0  0  0  0  0
    0.1292    2.0000    0.0000 C   0  0  0  0  0  0  0  0  0  0  0  0
  2  5  1  0  0  0  0
  3  1  1  0  0  0  0
  4  1  1  0  0  0  0
  5  3  1  0  0  0  0
  6  7  1  0  0  0  0
  7  3  1  0  0  0  0
  8  4  2  0  0  0  0
  9  4  1  0  0  0  0
 10  1  2  0  0  0  0
 11  1  2  0  0  0  0
 12  8  1  0  0  0  0
 13  9  2  0  0  0  0
 14  2  2  0  0  0  0
 15  2  2  0  0  0  0
 16 13  1  0  0  0  0
 17  7  1  0  0  0  0
 18 22  1  0  0  0  0
 19 18  2  0  0  0  0
 20 16  1  0  0  0  0
 21  9  1  0  0  0  0
 22 17  1  0  0  0  0
 23 12  1  0  0  0  0
 24 20  1  0  0  0  0
  2  6  1  0  0  0  0
 12 16  2  0  0  0  0
M  END
>  <Code> (P7020600813)
P7020600813

>  <Number of H-Donors> (P7020600813)
1

>  <Number of H-Acceptors> (P7020600813)
6

>  <Number of Rotatable bonds> (P7020600813)
6

>  <CLogP> (P7020600813)
2.000000000000000e+000

>  <Number of Rings> (P7020600813)
2

>  <PSA> (P7020600813)
1.063000000000000e+002

$$$$

  -ISIS-  11102212342D

 28 30  0  0  0  0  0  0  0  0999 V2000
    2.6167    2.9208    0.0000 S   0  0  3  0  0  0  0  0  0  0  0  0
    2.7500    0.9875    0.0000 S   0  0  3  0  0  0  0  0  0  0  0  0
    2.8125    2.1958    0.0000 C   0  0  3  0  0  0  0  0  0  0  0  0
    1.8667    2.9208    0.0000 C   0  0  0  0  0  0  0  0  0  0  0  0
    2.3417    1.6208    0.0000 C   0  0  0  0  0  0  0  0  0  0  0  0
    3.5125    1.9333    0.0000 C   0  0  3  0  0  0  0  0  0  0  0  0
    3.4750    1.1833    0.0000 C   0  0  0  0  0  0  0  0  0  0  0  0
    4.1417    2.3375    0.0000 N   0  0  0  0  0  0  0  0  0  0  0  0
    3.3542    3.0583    0.0000 O   0  0  0  0  0  0  0  0  0  0  0  0
    2.5542    3.6708    0.0000 O   0  0  0  0  0  0  0  0  0  0  0  0
    2.0792    0.6458    0.0000 O   0  0  0  0  0  0  0  0  0  0  0  0
    3.0167    0.2875    0.0000 O   0  0  0  0  0  0  0  0  0  0  0  0
    1.4917    3.5708    0.0000 C   0  0  0  0  0  0  0  0  0  0  0  0
    1.4917    2.2708    0.0000 C   0  0  0  0  0  0  0  0  0  0  0  0
    4.8125    1.9958    0.0000 C   0  0  0  0  0  0  0  0  0  0  0  0
    5.4375    2.4083    0.0000 C   0  0  0  0  0  0  0  0  0  0  0  0
    0.7417    3.5708    0.0000 C   0  0  0  0  0  0  0  0  0  0  0  0
    6.1042    2.0708    0.0000 C   0  0  0  0  0  0  0  0  0  0  0  0
    0.7417    2.2708    0.0000 C   0  0  0  0  0  0  0  0  0  0  0  0
    0.3667    2.9208    0.0000 C   0  0  0  0  0  0  0  0  0  0  0  0
    1.8667    4.2167    0.0000 O   0  0  0  0  0  0  0  0  0  0  0  0
    5.4000    3.1583    0.0000 C   0  0  0  0  0  0  0  0  0  0  0  0
    6.1417    1.3208    0.0000 C   0  0  0  0  0  0  0  0  0  0  0  0
    6.7375    2.4750    0.0000 C   0  0  0  0  0  0  0  0  0  0  0  0
    0.3667    1.6250    0.0000 C   0  0  0  0  0  0  0  0  0  0  0  0
    1.4917    4.8667    0.0000 C   0  0  0  0  0  0  0  0  0  0  0  0
    6.0292    3.5625    0.0000 C   0  0  0  0  0  0  0  0  0  0  0  0
    6.6917    3.2208    0.0000 C   0  0  0  0  0  0  0  0  0  0  0  0
  2  5  1  0  0  0  0
  3  1  1  0  0  0  0
  4  1  1  0  0  0  0
  5  3  1  0  0  0  0
  6  3  1  0  0  0  0
  7  6  1  0  0  0  0
  8  6  1  0  0  0  0
  9  1  2  0  0  0  0
 10  1  2  0  0  0  0
 11  2  2  0  0  0  0
 12  2  2  0  0  0  0
 13  4  2  0  0  0  0
 14  4  1  0  0  0  0
 15  8  1  0  0  0  0
 16 15  1  0  0  0  0
 17 13  1  0  0  0  0
 18 16  1  0  0  0  0
 19 14  2  0  0  0  0
 20 19  1  0  0  0  0
 21 13  1  0  0  0  0
 22 16  2  0  0  0  0
 23 18  1  0  0  0  0
 24 18  2  0  0  0  0
 25 19  1  0  0  0  0
 26 21  1  0  0  0  0
 27 22  1  0  0  0  0
 28 27  2  0  0  0  0
  7  2  1  0  0  0  0
 20 17  2  0  0  0  0
 28 24  1  0  0  0  0
M  END
>  <Code> (P7020600746)
P7020600746

>  <Number of H-Donors> (P7020600746)
1

>  <Number of H-Acceptors> (P7020600746)
6

>  <Number of Rotatable bonds> (P7020600746)
6

>  <CLogP> (P7020600746)
3.000000000000000e+000

>  <Number of Rings> (P7020600746)
3

>  <PSA> (P7020600746)
1.063000000000000e+002

$$$$

  -ISIS-  11102212342D

 22 24  0  0  0  0  0  0  0  0999 V2000
   -0.4333   -0.0042    0.0000 C   0  0  0  0  0  0  0  0  0  0  0  0
   -1.2958   -0.5125    0.0000 N   0  0  0  0  0  0  0  0  0  0  0  0
    0.4250   -0.5125    0.0000 C   0  0  0  0  0  0  0  0  0  0  0  0
    0.4250   -1.5167    0.0000 C   0  0  0  0  0  0  0  0  0  0  0  0
   -1.2958   -1.5167    0.0000 C   0  0  0  0  0  0  0  0  0  0  0  0
   -0.4333   -2.0042    0.0000 N   0  0  0  0  0  0  0  0  0  0  0  0
    1.3042   -0.0167    0.0000 C   0  0  0  0  0  0  0  0  0  0  0  0
   -0.4333    0.9958    0.0000 N   0  0  0  0  0  0  0  0  0  0  0  0
    2.1625   -0.5250    0.0000 N   0  0  0  0  0  0  0  0  0  0  0  0
    1.2917   -2.0167    0.0000 C   0  0  0  0  0  0  0  0  0  0  0  0
   -2.1750   -2.0167    0.0000 S   0  0  0  0  0  0  0  0  0  0  0  0
   -0.4375    1.9958    0.0000 C   0  0  3  0  0  0  0  0  0  0  0  0
    1.2917   -3.0167    0.0000 C   0  0  0  0  0  0  0  0  0  0  0  0
    2.1625   -1.5167    0.0000 C   0  0  0  0  0  0  0  0  0  0  0  0
   -3.0333   -1.5167    0.0000 C   0  0  0  0  0  0  0  0  0  0  0  0
    0.3667    2.5833    0.0000 C   0  0  0  0  0  0  0  0  0  0  0  0
   -1.2500    2.5833    0.0000 C   0  0  0  0  0  0  0  0  0  0  0  0
    2.1625   -3.5292    0.0000 C   0  0  0  0  0  0  0  0  0  0  0  0
    3.0250   -2.0167    0.0000 C   0  0  0  0  0  0  0  0  0  0  0  0
   -0.9458    3.5333    0.0000 C   0  0  0  0  0  0  0  0  0  0  0  0
    0.0542    3.5333    0.0000 C   0  0  0  0  0  0  0  0  0  0  0  0
    3.0292   -3.0167    0.0000 C   0  0  0  0  0  0  0  0  0  0  0  0
  2  1  2  0  0  0  0
  3  1  1  0  0  0  0
  4  3  2  0  0  0  0
  5  2  1  0  0  0  0
  6  4  1  0  0  0  0
  7  3  1  0  0  0  0
  8  1  1  0  0  0  0
  9  7  3  0  0  0  0
 10  4  1  0  0  0  0
 11  5  1  0  0  0  0
 12  8  1  0  0  0  0
 13 10  2  0  0  0  0
 14 10  1  0  0  0  0
 15 11  1  0  0  0  0
 16 12  1  0  0  0  0
 17 12  1  0  0  0  0
 18 13  1  0  0  0  0
 19 14  2  0  0  0  0
 20 17  1  0  0  0  0
 21 16  1  0  0  0  0
 22 19  1  0  0  0  0
  5  6  2  0  0  0  0
 20 21  1  0  0  0  0
 18 22  2  0  0  0  0
M  END
>  <Code> (P7020580497)
P7020580497

>  <Number of H-Donors> (P7020580497)
1

>  <Number of H-Acceptors> (P7020580497)
5

>  <Number of Rotatable bonds> (P7020580497)
4

>  <CLogP> (P7020580497)
4.200000000000000e+000

>  <Number of Rings> (P7020580497)
3

>  <PSA> (P7020580497)
8.690000000000001e+001

$$$$

  -ISIS-  11102212342D

 25 27  0  0  0  0  0  0  0  0999 V2000
   -0.3750    3.0333    0.0000 S   0  0  3  0  0  0  0  0  0  0  0  0
   -0.8625   -0.5042    0.0000 C   0  0  0  0  0  0  0  0  0  0  0  0
   -1.7250   -1.0125    0.0000 N   0  0  0  0  0  0  0  0  0  0  0  0
   -0.0083   -1.0125    0.0000 C   0  0  0  0  0  0  0  0  0  0  0  0
   -0.0083   -2.0167    0.0000 C   0  0  0  0  0  0  0  0  0  0  0  0
   -1.7250   -2.0167    0.0000 C   0  0  0  0  0  0  0  0  0  0  0  0
   -0.8625   -2.5042    0.0000 N   0  0  0  0  0  0  0  0  0  0  0  0
   -0.0625    2.0833    0.0000 C   0  0  0  0  0  0  0  0  0  0  0  0
   -0.8625    0.4875    0.0000 N   0  0  0  0  0  0  0  0  0  0  0  0
    0.8667   -0.5167    0.0000 C   0  0  0  0  0  0  0  0  0  0  0  0
    1.7292   -1.0250    0.0000 N   0  0  0  0  0  0  0  0  0  0  0  0
   -0.3833    4.0292    0.0000 O   0  0  0  0  0  0  0  0  0  0  0  0
    0.6167    3.0333    0.0000 O   0  0  0  0  0  0  0  0  0  0  0  0
    0.8542   -2.5167    0.0000 C   0  0  0  0  0  0  0  0  0  0  0  0
   -0.8708    1.4875    0.0000 C   0  0  3  0  0  0  0  0  0  0  0  0
   -1.3750    3.0250    0.0000 C   0  0  0  0  0  0  0  0  0  0  0  0
   -2.6083   -2.5167    0.0000 S   0  0  0  0  0  0  0  0  0  0  0  0
   -1.6833    2.0833    0.0000 C   0  0  0  0  0  0  0  0  0  0  0  0
    1.7292   -2.0167    0.0000 C   0  0  0  0  0  0  0  0  0  0  0  0
    0.8542   -3.5167    0.0000 C   0  0  0  0  0  0  0  0  0  0  0  0
    2.5917   -2.5167    0.0000 C   0  0  0  0  0  0  0  0  0  0  0  0
    1.7292   -4.0292    0.0000 C   0  0  0  0  0  0  0  0  0  0  0  0
    2.5917   -3.5167    0.0000 C   0  0  0  0  0  0  0  0  0  0  0  0
   -3.4625   -2.0167    0.0000 C   0  0  0  0  0  0  0  0  0  0  0  0
    3.4542   -4.0042    0.0000 C   0  0  0  0  0  0  0  0  0  0  0  0
  2  9  1  0  0  0  0
  3  2  2  0  0  0  0
  4  2  1  0  0  0  0
  5  4  2  0  0  0  0
  6  3  1  0  0  0  0
  7  5  1  0  0  0  0
  8  1  1  0  0  0  0
  9 15  1  0  0  0  0
 10  4  1  0  0  0  0
 11 10  3  0  0  0  0
 12  1  2  0  0  0  0
 13  1  2  0  0  0  0
 14  5  1  0  0  0  0
 15  8  1  0  0  0  0
 16  1  1  0  0  0  0
 17  6  1  0  0  0  0
 18 16  1  0  0  0  0
 19 14  1  0  0  0  0
 20 14  2  0  0  0  0
 21 19  2  0  0  0  0
 22 20  1  0  0  0  0
 23 22  2  0  0  0  0
 24 17  1  0  0  0  0
 25 23  1  0  0  0  0
 18 15  1  0  0  0  0
  7  6  2  0  0  0  0
 21 23  1  0  0  0  0
M  END
>  <Code> (P7020580396)
P7020580396

>  <Number of H-Donors> (P7020580396)
1

>  <Number of H-Acceptors> (P7020580396)
7

>  <Number of Rotatable bonds> (P7020580396)
4

>  <CLogP> (P7020580396)
2.800000000000000e+000

>  <Number of Rings> (P7020580396)
3

>  <PSA> (P7020580396)
1.294000000000000e+002

$$$$

  -ISIS-  11102212342D

 23 24  0  0  0  0  0  0  0  0999 V2000
   -0.8708    0.0125    0.0000 C   0  0  0  0  0  0  0  0  0  0  0  0
   -1.7333   -0.4917    0.0000 N   0  0  0  0  0  0  0  0  0  0  0  0
   -0.0125   -0.4917    0.0000 C   0  0  0  0  0  0  0  0  0  0  0  0
   -0.0125   -1.4917    0.0000 C   0  0  0  0  0  0  0  0  0  0  0  0
   -1.7333   -1.4917    0.0000 C   0  0  0  0  0  0  0  0  0  0  0  0
   -0.8708   -1.9792    0.0000 N   0  0  0  0  0  0  0  0  0  0  0  0
    0.8667   -0.0000    0.0000 C   0  0  0  0  0  0  0  0  0  0  0  0
   -0.8708    1.0125    0.0000 N   0  0  0  0  0  0  0  0  0  0  0  0
    1.7250   -0.5042    0.0000 N   0  0  0  0  0  0  0  0  0  0  0  0
    0.8542   -1.9917    0.0000 C   0  0  0  0  0  0  0  0  0  0  0  0
   -2.6125   -1.9917    0.0000 S   0  0  0  0  0  0  0  0  0  0  0  0
    0.8542   -2.9917    0.0000 C   0  0  0  0  0  0  0  0  0  0  0  0
    1.7250   -1.4917    0.0000 C   0  0  0  0  0  0  0  0  0  0  0  0
    2.5917   -2.9917    0.0000 C   0  0  0  0  0  0  0  0  0  0  0  0
    1.7250   -3.5042    0.0000 C   0  0  0  0  0  0  0  0  0  0  0  0
    2.5875   -1.9917    0.0000 C   0  0  0  0  0  0  0  0  0  0  0  0
    3.4625   -3.4917    0.0000 Cl  0  0  0  0  0  0  0  0  0  0  0  0
   -0.8750    2.0208    0.0000 C   0  0  3  0  0  0  0  0  0  0  0  0
    0.8542    2.0208    0.0000 O   0  0  0  0  0  0  0  0  0  0  0  0
   -3.4708   -1.4917    0.0000 C   0  0  0  0  0  0  0  0  0  0  0  0
   -0.0125    2.5208    0.0000 C   0  0  0  0  0  0  0  0  0  0  0  0
   -1.7458    2.5208    0.0000 C   0  0  0  0  0  0  0  0  0  0  0  0
   -1.7500    3.5208    0.0000 C   0  0  0  0  0  0  0  0  0  0  0  0
  2  1  2  0  0  0  0
  3  1  1  0  0  0  0
  4  3  2  0  0  0  0
  5  2  1  0  0  0  0
  6  4  1  0  0  0  0
  7  3  1  0  0  0  0
  8  1  1  0  0  0  0
  9  7  3  0  0  0  0
 10  4  1  0  0  0  0
 11  5  1  0  0  0  0
 12 10  2  0  0  0  0
 13 10  1  0  0  0  0
 14 16  1  0  0  0  0
 15 12  1  0  0  0  0
 16 13  2  0  0  0  0
 17 14  1  0  0  0  0
 18  8  1  0  0  0  0
 19 21  1  0  0  0  0
 20 11  1  0  0  0  0
 21 18  1  0  0  0  0
 22 18  1  0  0  0  0
 23 22  1  0  0  0  0
  6  5  2  0  0  0  0
 14 15  2  0  0  0  0
M  END
>  <Code> (P7020580394)
P7020580394

>  <Number of H-Donors> (P7020580394)
2

>  <Number of H-Acceptors> (P7020580394)
6

>  <Number of Rotatable bonds> (P7020580394)
6

>  <CLogP> (P7020580394)
3.800000000000000e+000

>  <Number of Rings> (P7020580394)
2

>  <PSA> (P7020580394)
1.071000000000000e+002

$$$$

  -ISIS-  11102212342D

 26 27  0  0  0  0  0  0  0  0999 V2000
   -1.3000    0.5083    0.0000 C   0  0  0  0  0  0  0  0  0  0  0  0
   -2.1583   -0.0042    0.0000 N   0  0  0  0  0  0  0  0  0  0  0  0
   -0.4375   -0.0042    0.0000 C   0  0  0  0  0  0  0  0  0  0  0  0
   -0.4375   -1.0042    0.0000 C   0  0  0  0  0  0  0  0  0  0  0  0
   -2.1583   -1.0042    0.0000 C   0  0  0  0  0  0  0  0  0  0  0  0
   -1.3000   -1.4917    0.0000 N   0  0  0  0  0  0  0  0  0  0  0  0
    0.4375    0.4958    0.0000 C   0  0  0  0  0  0  0  0  0  0  0  0
   -1.3000    1.5083    0.0000 N   0  0  0  0  0  0  0  0  0  0  0  0
    1.3000   -0.0167    0.0000 N   0  0  0  0  0  0  0  0  0  0  0  0
    0.4250   -1.5042    0.0000 C   0  0  0  0  0  0  0  0  0  0  0  0
    3.0292   -3.0042    0.0000 C   0  0  3  0  0  0  0  0  0  0  0  0
    2.1625   -2.5042    0.0000 C   0  0  0  0  0  0  0  0  0  0  0  0
   -3.0333   -1.5042    0.0000 S   0  0  0  0  0  0  0  0  0  0  0  0
    0.4250   -2.5042    0.0000 C   0  0  0  0  0  0  0  0  0  0  0  0
    1.3000   -1.0042    0.0000 C   0  0  0  0  0  0  0  0  0  0  0  0
    2.1625   -1.5042    0.0000 C   0  0  0  0  0  0  0  0  0  0  0  0
    1.3000   -3.0167    0.0000 C   0  0  0  0  0  0  0  0  0  0  0  0
   -1.3000    2.5083    0.0000 C   0  0  3  0  0  0  0  0  0  0  0  0
    0.4250    2.5083    0.0000 O   0  0  0  0  0  0  0  0  0  0  0  0
    3.0292   -4.0000    0.0000 C   0  0  0  0  0  0  0  0  0  0  0  0
    3.8917   -2.5000    0.0000 C   0  0  0  0  0  0  0  0  0  0  0  0
    2.3167   -3.7125    0.0000 C   0  0  0  0  0  0  0  0  0  0  0  0
   -3.8958   -1.0042    0.0000 C   0  0  0  0  0  0  0  0  0  0  0  0
   -0.4375    3.0083    0.0000 C   0  0  0  0  0  0  0  0  0  0  0  0
   -2.1750    3.0083    0.0000 C   0  0  0  0  0  0  0  0  0  0  0  0
   -2.1750    4.0000    0.0000 C   0  0  0  0  0  0  0  0  0  0  0  0
  2  1  2  0  0  0  0
  3  1  1  0  0  0  0
  4  3  2  0  0  0  0
  5  2  1  0  0  0  0
  6  4  1  0  0  0  0
  7  3  1  0  0  0  0
  8  1  1  0  0  0  0
  9  7  3  0  0  0  0
 10  4  1  0  0  0  0
 11 12  1  0  0  0  0
 12 16  1  0  0  0  0
 13  5  1  0  0  0  0
 14 10  2  0  0  0  0
 15 10  1  0  0  0  0
 16 15  2  0  0  0  0
 17 14  1  0  0  0  0
 18  8  1  0  0  0  0
 19 24  1  0  0  0  0
 20 11  1  0  0  0  0
 21 11  1  0  0  0  0
 22 11  1  0  0  0  0
 23 13  1  0  0  0  0
 24 18  1  0  0  0  0
 25 18  1  0  0  0  0
 26 25  1  0  0  0  0
  6  5  2  0  0  0  0
 12 17  2  0  0  0  0
M  END
>  <Code> (P7020580292)
P7020580292

>  <Number of H-Donors> (P7020580292)
2

>  <Number of H-Acceptors> (P7020580292)
6

>  <Number of Rotatable bonds> (P7020580292)
7

>  <CLogP> (P7020580292)
4.600000000000000e+000

>  <Number of Rings> (P7020580292)
2

>  <PSA> (P7020580292)
1.071000000000000e+002

$$$$

  -ISIS-  11102212342D

 25 26  0  0  0  0  0  0  0  0999 V2000
   -2.1583    0.2458    0.0000 N   0  0  0  0  0  0  0  0  0  0  0  0
   -0.4333    0.2458    0.0000 C   0  0  0  0  0  0  0  0  0  0  0  0
   -1.2958    0.7500    0.0000 C   0  0  0  0  0  0  0  0  0  0  0  0
   -0.4333   -0.7625    0.0000 C   0  0  0  0  0  0  0  0  0  0  0  0
   -2.1583   -0.7625    0.0000 C   0  0  0  0  0  0  0  0  0  0  0  0
   -1.2958   -1.2500    0.0000 N   0  0  0  0  0  0  0  0  0  0  0  0
    0.4417    0.7375    0.0000 C   0  0  0  0  0  0  0  0  0  0  0  0
    1.3042    0.2333    0.0000 N   0  0  0  0  0  0  0  0  0  0  0  0
   -1.2958    1.7500    0.0000 N   0  0  0  0  0  0  0  0  0  0  0  0
    0.4292   -1.2625    0.0000 C   0  0  0  0  0  0  0  0  0  0  0  0
    3.0375   -2.7500    0.0000 C   0  0  3  0  0  0  0  0  0  0  0  0
    2.1667   -2.2542    0.0000 C   0  0  0  0  0  0  0  0  0  0  0  0
   -3.0333   -1.2625    0.0000 S   0  0  0  0  0  0  0  0  0  0  0  0
    1.3042   -0.7625    0.0000 C   0  0  0  0  0  0  0  0  0  0  0  0
    0.4292   -2.2542    0.0000 C   0  0  0  0  0  0  0  0  0  0  0  0
    1.3042   -2.7667    0.0000 C   0  0  0  0  0  0  0  0  0  0  0  0
    2.1667   -1.2625    0.0000 C   0  0  0  0  0  0  0  0  0  0  0  0
   -0.4333    2.2500    0.0000 C   0  0  0  0  0  0  0  0  0  0  0  0
    0.4292    3.7500    0.0000 O   0  0  0  0  0  0  0  0  0  0  0  0
   -0.4333    3.2583    0.0000 C   0  0  3  0  0  0  0  0  0  0  0  0
    3.0417   -3.7417    0.0000 C   0  0  0  0  0  0  0  0  0  0  0  0
    3.8917   -2.2375    0.0000 C   0  0  0  0  0  0  0  0  0  0  0  0
    2.3375   -3.4542    0.0000 C   0  0  0  0  0  0  0  0  0  0  0  0
   -3.8958   -0.7625    0.0000 C   0  0  0  0  0  0  0  0  0  0  0  0
   -1.2958    3.7500    0.0000 C   0  0  0  0  0  0  0  0  0  0  0  0
  2  3  1  0  0  0  0
  3  1  2  0  0  0  0
  4  6  1  0  0  0  0
  5  1  1  0  0  0  0
  6  5  2  0  0  0  0
  7  2  1  0  0  0  0
  8  7  3  0  0  0  0
  9  3  1  0  0  0  0
 10  4  1  0  0  0  0
 11 12  1  0  0  0  0
 12 16  2  0  0  0  0
 13  5  1  0  0  0  0
 14 10  1  0  0  0  0
 15 10  2  0  0  0  0
 16 15  1  0  0  0  0
 17 14  2  0  0  0  0
 18  9  1  0  0  0  0
 19 20  1  0  0  0  0
 20 18  1  0  0  0  0
 21 11  1  0  0  0  0
 22 11  1  0  0  0  0
 23 11  1  0  0  0  0
 24 13  1  0  0  0  0
 25 20  1  0  0  0  0
  2  4  2  0  0  0  0
 17 12  1  0  0  0  0
M  END
>  <Code> (P7020580273)
P7020580273

>  <Number of H-Donors> (P7020580273)
2

>  <Number of H-Acceptors> (P7020580273)
6

>  <Number of Rotatable bonds> (P7020580273)
6

>  <CLogP> (P7020580273)
4.100000000000000e+000

>  <Number of Rings> (P7020580273)
2

>  <PSA> (P7020580273)
1.071000000000000e+002

$$$$

  -ISIS-  11102212342D

 26 28  0  0  0  0  0  0  0  0999 V2000
   -1.6250    0.1958    0.0000 C   0  0  0  0  0  0  0  0  0  0  0  0
   -0.8583    0.8333    0.0000 N   0  0  0  0  0  0  0  0  0  0  0  0
   -0.0208    0.3125    0.0000 C   0  0  0  0  0  0  0  0  0  0  0  0
    3.4417    0.1958    0.0000 N   0  0  3  0  0  0  0  0  0  0  0  0
   -1.2458   -0.7417    0.0000 S   0  0  0  0  0  0  0  0  0  0  0  0
    2.6000    0.7208    0.0000 C   0  0  0  0  0  0  0  0  0  0  0  0
   -0.2458   -0.6542    0.0000 C   0  0  0  0  0  0  0  0  0  0  0  0
   -2.6250    0.2208    0.0000 N   0  0  0  0  0  0  0  0  0  0  0  0
    4.3417    0.6750    0.0000 C   0  0  0  0  0  0  0  0  0  0  0  0
    0.8667    0.7833    0.0000 C   0  0  0  0  0  0  0  0  0  0  0  0
    1.7167    0.2500    0.0000 C   0  0  0  0  0  0  0  0  0  0  0  0
    3.5042    2.2208    0.0000 O   0  0  0  0  0  0  0  0  0  0  0  0
    2.6292    1.7250    0.0000 C   0  0  0  0  0  0  0  0  0  0  0  0
   -3.6250    0.2500    0.0000 C   0  0  0  0  0  0  0  0  0  0  0  0
    4.3667    1.6750    0.0000 C   0  0  0  0  0  0  0  0  0  0  0  0
    5.1792    0.1458    0.0000 O   0  0  0  0  0  0  0  0  0  0  0  0
    0.9042    1.7833    0.0000 C   0  0  0  0  0  0  0  0  0  0  0  0
   -4.1583   -0.5917    0.0000 O   0  0  0  0  0  0  0  0  0  0  0  0
    1.7792    2.2500    0.0000 C   0  0  0  0  0  0  0  0  0  0  0  0
    4.2625   -1.3250    0.0000 C   0  0  0  0  0  0  0  0  0  0  0  0
    3.4167   -0.7917    0.0000 C   0  0  0  0  0  0  0  0  0  0  0  0
    4.2500   -2.3167    0.0000 C   0  0  0  0  0  0  0  0  0  0  0  0
    0.4125   -1.4042    0.0000 C   0  0  0  0  0  0  0  0  0  0  0  0
   -4.0958    1.1333    0.0000 C   0  0  0  0  0  0  0  0  0  0  0  0
   -5.0708    1.3458    0.0000 O   0  0  0  0  0  0  0  0  0  0  0  0
   -5.1875    2.3333    0.0000 C   0  0  0  0  0  0  0  0  0  0  0  0
  2  1  2  0  0  0  0
  3  2  1  0  0  0  0
  4  6  1  0  0  0  0
  5  1  1  0  0  0  0
  6 11  2  0  0  0  0
  7  5  1  0  0  0  0
  8  1  1  0  0  0  0
  9  4  1  0  0  0  0
 10  3  1  0  0  0  0
 11 10  1  0  0  0  0
 12 13  1  0  0  0  0
 13 19  2  0  0  0  0
 14  8  1  0  0  0  0
 15 12  1  0  0  0  0
 16  9  2  0  0  0  0
 17 10  2  0  0  0  0
 18 14  2  0  0  0  0
 19 17  1  0  0  0  0
 20 21  1  0  0  0  0
 21  4  1  0  0  0  0
 22 20  2  0  0  0  0
 23  7  1  0  0  0  0
 24 14  1  0  0  0  0
 25 24  1  0  0  0  0
 26 25  1  0  0  0  0
  3  7  2  0  0  0  0
  6 13  1  0  0  0  0
  9 15  1  0  0  0  0
M  END
>  <Code> (P7020580149)
P7020580149

>  <Number of H-Donors> (P7020580149)
1

>  <Number of H-Acceptors> (P7020580149)
5

>  <Number of Rotatable bonds> (P7020580149)
6

>  <CLogP> (P7020580149)
1.400000000000000e+000

>  <Number of Rings> (P7020580149)
3

>  <PSA> (P7020580149)
1.090000000000000e+002

$$$$

  -ISIS-  11102212342D

 24 26  0  0  0  0  0  0  0  0999 V2000
   -2.1458   -0.3125    0.0000 C   0  0  0  0  0  0  0  0  0  0  0  0
   -1.4083    0.3625    0.0000 N   0  0  0  0  0  0  0  0  0  0  0  0
   -0.5375   -0.1375    0.0000 C   0  0  0  0  0  0  0  0  0  0  0  0
    2.9125   -0.1500    0.0000 N   0  0  3  0  0  0  0  0  0  0  0  0
   -1.7458   -1.2125    0.0000 S   0  0  0  0  0  0  0  0  0  0  0  0
    2.0500    0.3500    0.0000 C   0  0  0  0  0  0  0  0  0  0  0  0
   -0.7375   -1.1167    0.0000 C   0  0  0  0  0  0  0  0  0  0  0  0
   -3.1458   -0.3000    0.0000 N   0  0  0  0  0  0  0  0  0  0  0  0
    3.7792    0.3500    0.0000 C   0  0  0  0  0  0  0  0  0  0  0  0
    0.3250    0.3500    0.0000 C   0  0  0  0  0  0  0  0  0  0  0  0
    1.1917   -0.1500    0.0000 C   0  0  0  0  0  0  0  0  0  0  0  0
    2.9292    1.8625    0.0000 O   0  0  0  0  0  0  0  0  0  0  0  0
    2.0500    1.3625    0.0000 C   0  0  0  0  0  0  0  0  0  0  0  0
   -4.1458   -0.3000    0.0000 C   0  0  0  0  0  0  0  0  0  0  0  0
    3.7792    1.3625    0.0000 C   0  0  0  0  0  0  0  0  0  0  0  0
    4.6417   -0.1500    0.0000 O   0  0  0  0  0  0  0  0  0  0  0  0
    0.3250    1.3625    0.0000 C   0  0  0  0  0  0  0  0  0  0  0  0
   -4.6458    0.5583    0.0000 O   0  0  0  0  0  0  0  0  0  0  0  0
    1.1917    1.8583    0.0000 C   0  0  0  0  0  0  0  0  0  0  0  0
    2.0500   -1.6500    0.0000 C   0  0  0  0  0  0  0  0  0  0  0  0
    2.9125   -1.1500    0.0000 C   0  0  0  0  0  0  0  0  0  0  0  0
    1.1750   -1.1500    0.0000 C   0  0  0  0  0  0  0  0  0  0  0  0
   -0.0708   -1.8542    0.0000 C   0  0  0  0  0  0  0  0  0  0  0  0
   -4.6583   -1.1625    0.0000 C   0  0  0  0  0  0  0  0  0  0  0  0
  2  1  2  0  0  0  0
  3  2  1  0  0  0  0
  4  6  1  0  0  0  0
  5  1  1  0  0  0  0
  6 11  2  0  0  0  0
  7  5  1  0  0  0  0
  8  1  1  0  0  0  0
  9  4  1  0  0  0  0
 10  3  1  0  0  0  0
 11 10  1  0  0  0  0
 12 13  1  0  0  0  0
 13 19  2  0  0  0  0
 14  8  1  0  0  0  0
 15 12  1  0  0  0  0
 16  9  2  0  0  0  0
 17 10  2  0  0  0  0
 18 14  2  0  0  0  0
 19 17  1  0  0  0  0
 20 21  1  0  0  0  0
 21  4  1  0  0  0  0
 22 20  2  0  0  0  0
 23  7  1  0  0  0  0
 24 14  1  0  0  0  0
  3  7  2  0  0  0  0
  6 13  1  0  0  0  0
  9 15  1  0  0  0  0
M  END
>  <Code> (P7020580141)
P7020580141

>  <Number of H-Donors> (P7020580141)
1

>  <Number of H-Acceptors> (P7020580141)
4

>  <Number of Rotatable bonds> (P7020580141)
4

>  <CLogP> (P7020580141)
1.700000000000000e+000

>  <Number of Rings> (P7020580141)
3

>  <PSA> (P7020580141)
9.980000000000001e+001

$$$$

  -ISIS-  11102212342D

 22 23  0  0  0  0  0  0  0  0999 V2000
    1.7417   -0.2292    0.0000 N   0  0  0  0  0  0  0  0  0  0  0  0
    1.7417   -1.2375    0.0000 C   0  0  0  0  0  0  0  0  0  0  0  0
    2.5792    0.2958    0.0000 C   0  0  0  0  0  0  0  0  0  0  0  0
    3.4625   -1.2250    0.0000 N   0  0  0  0  0  0  0  0  0  0  0  0
    2.6000   -1.7292    0.0000 N   0  0  0  0  0  0  0  0  0  0  0  0
   -0.8833    0.2333    0.0000 C   0  0  0  0  0  0  0  0  0  0  0  0
   -1.7333   -0.2917    0.0000 C   0  0  0  0  0  0  0  0  0  0  0  0
    0.8292    1.2583    0.0000 C   0  0  0  0  0  0  0  0  0  0  0  0
   -0.0458    1.7458    0.0000 N   0  0  0  0  0  0  0  0  0  0  0  0
    3.4500   -0.2042    0.0000 C   0  0  0  0  0  0  0  0  0  0  0  0
   -0.9083    1.2208    0.0000 C   0  0  0  0  0  0  0  0  0  0  0  0
   -2.6125    0.1958    0.0000 C   0  0  0  0  0  0  0  0  0  0  0  0
    2.5625    1.2875    0.0000 S   0  0  0  0  0  0  0  0  0  0  0  0
    0.8500    0.2583    0.0000 O   0  0  0  0  0  0  0  0  0  0  0  0
   -2.6333    1.1958    0.0000 C   0  0  0  0  0  0  0  0  0  0  0  0
    1.6917    1.7750    0.0000 C   0  0  0  0  0  0  0  0  0  0  0  0
    0.8917   -1.7542    0.0000 O   0  0  0  0  0  0  0  0  0  0  0  0
   -1.7833    1.7083    0.0000 C   0  0  0  0  0  0  0  0  0  0  0  0
   -1.7083   -1.2917    0.0000 O   0  0  0  0  0  0  0  0  0  0  0  0
   -3.4708   -0.3167    0.0000 O   0  0  0  0  0  0  0  0  0  0  0  0
   -0.8333   -1.7667    0.0000 C   0  0  0  0  0  0  0  0  0  0  0  0
   -3.4458   -1.3167    0.0000 C   0  0  0  0  0  0  0  0  0  0  0  0
  2  1  1  0  0  0  0
  3  1  2  0  0  0  0
  4 10  2  0  0  0  0
  5  2  2  0  0  0  0
  6 11  1  0  0  0  0
  7  6  2  0  0  0  0
  8 16  1  0  0  0  0
  9  8  1  0  0  0  0
 10  3  1  0  0  0  0
 11  9  1  0  0  0  0
 12 15  2  0  0  0  0
 13  3  1  0  0  0  0
 14  8  2  0  0  0  0
 15 18  1  0  0  0  0
 16 13  1  0  0  0  0
 17  2  1  0  0  0  0
 18 11  2  0  0  0  0
 19  7  1  0  0  0  0
 20 12  1  0  0  0  0
 21 19  1  0  0  0  0
 22 20  1  0  0  0  0
  5  4  1  0  0  0  0
 12  7  1  0  0  0  0
M  END
>  <Code> (P7020570032)
P7020570032

>  <Number of H-Donors> (P7020570032)
2

>  <Number of H-Acceptors> (P7020570032)
8

>  <Number of Rotatable bonds> (P7020570032)
6

>  <CLogP> (P7020570032)
1.500000000000000e+000

>  <Number of Rings> (P7020570032)
2

>  <PSA> (P7020570032)
1.318000000000000e+002

$$$$

  -ISIS-  11102212342D

 22 23  0  0  0  0  0  0  0  0999 V2000
   -3.0333   -0.2292    0.0000 S   0  0  3  0  0  0  0  0  0  0  0  0
    2.1792   -0.2500    0.0000 N   0  0  0  0  0  0  0  0  0  0  0  0
    2.1750   -1.2542    0.0000 C   0  0  0  0  0  0  0  0  0  0  0  0
    3.0292    0.2625    0.0000 C   0  0  0  0  0  0  0  0  0  0  0  0
    3.9000   -1.2625    0.0000 N   0  0  0  0  0  0  0  0  0  0  0  0
   -2.1583    0.2708    0.0000 C   0  0  0  0  0  0  0  0  0  0  0  0
    3.0292   -1.7625    0.0000 N   0  0  0  0  0  0  0  0  0  0  0  0
   -2.5333   -1.1042    0.0000 O   0  0  0  0  0  0  0  0  0  0  0  0
   -3.5250    0.6333    0.0000 O   0  0  0  0  0  0  0  0  0  0  0  0
    1.2917    1.2750    0.0000 C   0  0  0  0  0  0  0  0  0  0  0  0
    3.9000   -0.2500    0.0000 C   0  0  0  0  0  0  0  0  0  0  0  0
    0.4375    1.7708    0.0000 N   0  0  0  0  0  0  0  0  0  0  0  0
   -3.9083   -0.7417    0.0000 N   0  0  0  0  0  0  0  0  0  0  0  0
    3.0292    1.2750    0.0000 S   0  0  0  0  0  0  0  0  0  0  0  0
    1.3125    0.2833    0.0000 O   0  0  0  0  0  0  0  0  0  0  0  0
   -2.1583    1.2708    0.0000 C   0  0  0  0  0  0  0  0  0  0  0  0
   -1.2958   -0.2292    0.0000 C   0  0  0  0  0  0  0  0  0  0  0  0
    2.1542    1.7708    0.0000 C   0  0  0  0  0  0  0  0  0  0  0  0
   -0.4375    1.2708    0.0000 C   0  0  0  0  0  0  0  0  0  0  0  0
    1.3167   -1.7667    0.0000 O   0  0  0  0  0  0  0  0  0  0  0  0
   -0.4375    0.2708    0.0000 C   0  0  0  0  0  0  0  0  0  0  0  0
   -1.2958    1.7625    0.0000 C   0  0  0  0  0  0  0  0  0  0  0  0
  2  4  2  0  0  0  0
  3  2  1  0  0  0  0
  4 14  1  0  0  0  0
  5 11  2  0  0  0  0
  6  1  1  0  0  0  0
  7  5  1  0  0  0  0
  8  1  2  0  0  0  0
  9  1  2  0  0  0  0
 10 12  1  0  0  0  0
 11  4  1  0  0  0  0
 12 19  1  0  0  0  0
 13  1  1  0  0  0  0
 14 18  1  0  0  0  0
 15 10  2  0  0  0  0
 16  6  1  0  0  0  0
 17  6  2  0  0  0  0
 18 10  1  0  0  0  0
 19 21  2  0  0  0  0
 20  3  1  0  0  0  0
 21 17  1  0  0  0  0
 22 16  2  0  0  0  0
 22 19  1  0  0  0  0
  7  3  2  0  0  0  0
M  END
>  <Code> (P7020570026)
P7020570026

>  <Number of H-Donors> (P7020570026)
3

>  <Number of H-Acceptors> (P7020570026)
8

>  <Number of Rotatable bonds> (P7020570026)
5

>  <CLogP> (P7020570026)
3.000000000000000e-001

>  <Number of Rings> (P7020570026)
2

>  <PSA> (P7020570026)
1.818000000000000e+002

$$$$

  -ISIS-  11102212342D

 24 25  0  0  0  0  0  0  0  0999 V2000
   -1.5583    1.2083    0.0000 C   0  0  0  0  0  0  0  0  0  0  0  0
    0.0667    1.2083    0.0000 C   0  0  0  0  0  0  0  0  0  0  0  0
   -0.2458    0.2458    0.0000 N   0  0  0  0  0  0  0  0  0  0  0  0
    2.3125   -0.8250    0.0000 N   0  0  0  0  0  0  0  0  0  0  0  0
   -0.7458    1.7833    0.0000 S   0  0  0  0  0  0  0  0  0  0  0  0
   -1.2458    0.2458    0.0000 C   0  0  0  0  0  0  0  0  0  0  0  0
    3.2417   -0.5000    0.0000 C   0  0  0  0  0  0  0  0  0  0  0  0
    1.0167    1.5083    0.0000 N   0  0  0  0  0  0  0  0  0  0  0  0
    2.0917   -1.8042    0.0000 C   0  0  0  0  0  0  0  0  0  0  0  0
    3.7667   -2.1667    0.0000 N   0  0  0  0  0  0  0  0  0  0  0  0
    3.9792   -1.1792    0.0000 C   0  0  0  0  0  0  0  0  0  0  0  0
   -2.5083    1.5083    0.0000 C   0  0  0  0  0  0  0  0  0  0  0  0
    2.8250   -2.4792    0.0000 N   0  0  0  0  0  0  0  0  0  0  0  0
    1.7542    0.8375    0.0000 C   0  0  0  0  0  0  0  0  0  0  0  0
    3.4542    0.4750    0.0000 S   0  0  0  0  0  0  0  0  0  0  0  0
   -2.7125    2.4833    0.0000 O   0  0  0  0  0  0  0  0  0  0  0  0
    1.5542   -0.1417    0.0000 O   0  0  0  0  0  0  0  0  0  0  0  0
    2.7167    1.1458    0.0000 C   0  0  0  0  0  0  0  0  0  0  0  0
    1.1542   -2.1167    0.0000 O   0  0  0  0  0  0  0  0  0  0  0  0
   -3.2583    0.8375    0.0000 O   0  0  0  0  0  0  0  0  0  0  0  0
   -1.8333   -0.5667    0.0000 C   0  0  0  0  0  0  0  0  0  0  0  0
    4.9417   -0.8792    0.0000 C   0  0  0  0  0  0  0  0  0  0  0  0
   -4.2083    1.1458    0.0000 C   0  0  0  0  0  0  0  0  0  0  0  0
   -4.9458    0.4750    0.0000 C   0  0  0  0  0  0  0  0  0  0  0  0
  2  5  1  0  0  0  0
  3  6  1  0  0  0  0
  4  7  2  0  0  0  0
  5  1  1  0  0  0  0
  6  1  2  0  0  0  0
  7 15  1  0  0  0  0
  8  2  1  0  0  0  0
  9  4  1  0  0  0  0
 10 11  2  0  0  0  0
 11  7  1  0  0  0  0
 12  1  1  0  0  0  0
 13 10  1  0  0  0  0
 14  8  1  0  0  0  0
 15 18  1  0  0  0  0
 16 12  2  0  0  0  0
 17 14  2  0  0  0  0
 18 14  1  0  0  0  0
 19  9  1  0  0  0  0
 20 12  1  0  0  0  0
 21  6  1  0  0  0  0
 22 11  1  0  0  0  0
 23 20  1  0  0  0  0
 24 23  1  0  0  0  0
  2  3  2  0  0  0  0
  9 13  2  0  0  0  0
M  END
>  <Code> (P7020570014)
P7020570014

>  <Number of H-Donors> (P7020570014)
2

>  <Number of H-Acceptors> (P7020570014)
9

>  <Number of Rotatable bonds> (P7020570014)
7

>  <CLogP> (P7020570014)
1.600000000000000e+000

>  <Number of Rings> (P7020570014)
2

>  <PSA> (P7020570014)
1.807000000000000e+002

$$$$

  -ISIS-  11102212342D

 27 30  0  0  0  0  0  0  0  0999 V2000
    0.5875    2.0458    0.0000 N   0  0  3  0  0  0  0  0  0  0  0  0
    0.9167    1.0958    0.0000 S   0  0  3  0  0  0  0  0  0  0  0  0
   -0.3708    2.3458    0.0000 C   0  0  0  0  0  0  0  0  0  0  0  0
   -1.2333    1.8375    0.0000 N   0  0  0  0  0  0  0  0  0  0  0  0
   -0.3708    3.3458    0.0000 C   0  0  0  0  0  0  0  0  0  0  0  0
   -2.0958    2.3375    0.0000 C   0  0  0  0  0  0  0  0  0  0  0  0
    1.1667    2.8625    0.0000 C   0  0  0  0  0  0  0  0  0  0  0  0
    1.2292    0.1458    0.0000 C   0  0  0  0  0  0  0  0  0  0  0  0
   -2.0958    3.3333    0.0000 C   0  0  0  0  0  0  0  0  0  0  0  0
   -0.0333    0.7750    0.0000 O   0  0  0  0  0  0  0  0  0  0  0  0
    1.8542    1.4083    0.0000 O   0  0  0  0  0  0  0  0  0  0  0  0
   -1.2458    3.8458    0.0000 C   0  0  0  0  0  0  0  0  0  0  0  0
    3.1667   -2.8917    0.0000 C   0  0  0  0  0  0  0  0  0  0  0  0
    2.1875   -2.6917    0.0000 N   0  0  0  0  0  0  0  0  0  0  0  0
    0.5667    3.6708    0.0000 C   0  0  0  0  0  0  0  0  0  0  0  0
   -2.9708    1.8333    0.0000 C   0  0  0  0  0  0  0  0  0  0  0  0
    3.8250   -2.1417    0.0000 O   0  0  0  0  0  0  0  0  0  0  0  0
    2.2042   -0.0417    0.0000 C   0  0  0  0  0  0  0  0  0  0  0  0
    0.5667   -0.6042    0.0000 C   0  0  0  0  0  0  0  0  0  0  0  0
    1.8667   -1.7417    0.0000 C   0  0  0  0  0  0  0  0  0  0  0  0
    0.8792   -1.5500    0.0000 C   0  0  0  0  0  0  0  0  0  0  0  0
    2.5292   -0.9917    0.0000 C   0  0  0  0  0  0  0  0  0  0  0  0
   -2.9708    3.8333    0.0000 C   0  0  0  0  0  0  0  0  0  0  0  0
   -3.8333    3.3333    0.0000 C   0  0  0  0  0  0  0  0  0  0  0  0
    3.4875   -3.8417    0.0000 C   0  0  0  0  0  0  0  0  0  0  0  0
   -3.8333    2.3333    0.0000 C   0  0  0  0  0  0  0  0  0  0  0  0
   -2.9708    0.8333    0.0000 C   0  0  0  0  0  0  0  0  0  0  0  0
  2  1  1  0  0  0  0
  3  1  1  0  0  0  0
  4  3  2  0  0  0  0
  5  3  1  0  0  0  0
  6  4  1  0  0  0  0
  7  1  1  0  0  0  0
  8  2  1  0  0  0  0
  9 12  1  0  0  0  0
 10  2  2  0  0  0  0
 11  2  2  0  0  0  0
 12  5  2  0  0  0  0
 13 14  1  0  0  0  0
 14 20  1  0  0  0  0
 15  7  1  0  0  0  0
 16  6  2  0  0  0  0
 17 13  2  0  0  0  0
 18  8  1  0  0  0  0
 19  8  2  0  0  0  0
 20 21  2  0  0  0  0
 21 19  1  0  0  0  0
 22 18  2  0  0  0  0
 23  9  2  0  0  0  0
 24 23  1  0  0  0  0
 25 13  1  0  0  0  0
 26 16  1  0  0  0  0
 27 16  1  0  0  0  0
  5 15  1  0  0  0  0
  6  9  1  0  0  0  0
 22 20  1  0  0  0  0
 26 24  2  0  0  0  0
M  END
>  <Code> (P7020531189)
P7020531189

>  <Number of H-Donors> (P7020531189)
1

>  <Number of H-Acceptors> (P7020531189)
4

>  <Number of Rotatable bonds> (P7020531189)
3

>  <CLogP> (P7020531189)
2.900000000000000e+000

>  <Number of Rings> (P7020531189)
4

>  <PSA> (P7020531189)
8.780000000000000e+001

$$$$

  -ISIS-  11102212342D

 27 30  0  0  0  0  0  0  0  0999 V2000
    0.8917    0.5208    0.0000 S   0  0  3  0  0  0  0  0  0  0  0  0
    0.5750    1.4708    0.0000 N   0  0  3  0  0  0  0  0  0  0  0  0
    1.2042   -0.4167    0.0000 C   0  0  0  0  0  0  0  0  0  0  0  0
   -0.3833    1.7708    0.0000 C   0  0  0  0  0  0  0  0  0  0  0  0
   -1.2375    1.2625    0.0000 N   0  0  0  0  0  0  0  0  0  0  0  0
   -0.3833    2.7708    0.0000 C   0  0  0  0  0  0  0  0  0  0  0  0
    0.5417   -1.1667    0.0000 C   0  0  0  0  0  0  0  0  0  0  0  0
   -2.1083    1.7625    0.0000 C   0  0  0  0  0  0  0  0  0  0  0  0
    2.1917   -0.6167    0.0000 C   0  0  0  0  0  0  0  0  0  0  0  0
    1.1542    2.2833    0.0000 C   0  0  0  0  0  0  0  0  0  0  0  0
   -0.0500    0.2083    0.0000 O   0  0  0  0  0  0  0  0  0  0  0  0
    1.8417    0.8333    0.0000 O   0  0  0  0  0  0  0  0  0  0  0  0
   -2.1083    2.7583    0.0000 C   0  0  0  0  0  0  0  0  0  0  0  0
   -1.2583    3.2708    0.0000 C   0  0  0  0  0  0  0  0  0  0  0  0
    0.8625   -2.1167    0.0000 C   0  0  0  0  0  0  0  0  0  0  0  0
    2.5042   -1.5667    0.0000 C   0  0  0  0  0  0  0  0  0  0  0  0
    1.8417   -2.3167    0.0000 C   0  0  0  0  0  0  0  0  0  0  0  0
    0.5542    3.0875    0.0000 C   0  0  0  0  0  0  0  0  0  0  0  0
   -2.9833    1.2583    0.0000 C   0  0  0  0  0  0  0  0  0  0  0  0
    2.8542    0.1375    0.0000 O   0  0  0  0  0  0  0  0  0  0  0  0
   -2.9833    3.2583    0.0000 C   0  0  0  0  0  0  0  0  0  0  0  0
   -3.8375    2.7583    0.0000 C   0  0  0  0  0  0  0  0  0  0  0  0
    0.2042   -2.8667    0.0000 C   0  0  0  0  0  0  0  0  0  0  0  0
    2.1667   -3.2625    0.0000 C   0  0  0  0  0  0  0  0  0  0  0  0
   -3.8375    1.7583    0.0000 C   0  0  0  0  0  0  0  0  0  0  0  0
   -2.9833    0.2583    0.0000 C   0  0  0  0  0  0  0  0  0  0  0  0
    3.8375   -0.0542    0.0000 C   0  0  0  0  0  0  0  0  0  0  0  0
  2  1  1  0  0  0  0
  3  1  1  0  0  0  0
  4  2  1  0  0  0  0
  5  4  2  0  0  0  0
  6  4  1  0  0  0  0
  7  3  2  0  0  0  0
  8  5  1  0  0  0  0
  9  3  1  0  0  0  0
 10  2  1  0  0  0  0
 11  1  2  0  0  0  0
 12  1  2  0  0  0  0
 13 14  1  0  0  0  0
 14  6  2  0  0  0  0
 15  7  1  0  0  0  0
 16  9  2  0  0  0  0
 17 16  1  0  0  0  0
 18 10  1  0  0  0  0
 19  8  2  0  0  0  0
 20  9  1  0  0  0  0
 21 13  2  0  0  0  0
 22 21  1  0  0  0  0
 23 15  1  0  0  0  0
 24 17  1  0  0  0  0
 25 19  1  0  0  0  0
 26 19  1  0  0  0  0
 27 20  1  0  0  0  0
  6 18  1  0  0  0  0
 17 15  2  0  0  0  0
  8 13  1  0  0  0  0
 25 22  2  0  0  0  0
M  END
>  <Code> (P7020531174)
P7020531174

>  <Number of H-Donors> (P7020531174)
0

>  <Number of H-Acceptors> (P7020531174)
4

>  <Number of Rotatable bonds> (P7020531174)
3

>  <CLogP> (P7020531174)
4.800000000000000e+000

>  <Number of Rings> (P7020531174)
4

>  <PSA> (P7020531174)
6.790000000000001e+001

$$$$

  -ISIS-  11102212342D

 27 30  0  0  0  0  0  0  0  0999 V2000
    0.9042    0.8958    0.0000 S   0  0  3  0  0  0  0  0  0  0  0  0
    0.5750    1.8458    0.0000 N   0  0  3  0  0  0  0  0  0  0  0  0
   -0.3833    2.1500    0.0000 C   0  0  0  0  0  0  0  0  0  0  0  0
    1.2167   -0.0542    0.0000 C   0  0  0  0  0  0  0  0  0  0  0  0
   -1.2375    1.6458    0.0000 N   0  0  0  0  0  0  0  0  0  0  0  0
   -0.3833    3.1458    0.0000 C   0  0  0  0  0  0  0  0  0  0  0  0
   -2.1083    2.1458    0.0000 C   0  0  0  0  0  0  0  0  0  0  0  0
    2.1917   -0.2417    0.0000 C   0  0  0  0  0  0  0  0  0  0  0  0
    1.1542    2.6625    0.0000 C   0  0  0  0  0  0  0  0  0  0  0  0
    1.8417    1.2125    0.0000 O   0  0  0  0  0  0  0  0  0  0  0  0
   -0.0458    0.5750    0.0000 O   0  0  0  0  0  0  0  0  0  0  0  0
   -2.1083    3.1458    0.0000 C   0  0  0  0  0  0  0  0  0  0  0  0
    0.5542   -0.8000    0.0000 C   0  0  0  0  0  0  0  0  0  0  0  0
   -1.2583    3.6458    0.0000 C   0  0  0  0  0  0  0  0  0  0  0  0
    2.5167   -1.1875    0.0000 C   0  0  0  0  0  0  0  0  0  0  0  0
    0.5542    3.4625    0.0000 C   0  0  0  0  0  0  0  0  0  0  0  0
   -2.9833    1.6333    0.0000 C   0  0  0  0  0  0  0  0  0  0  0  0
    1.8542   -1.9417    0.0000 C   0  0  0  0  0  0  0  0  0  0  0  0
    0.8667   -1.7417    0.0000 C   0  0  0  0  0  0  0  0  0  0  0  0
    2.8542    0.5208    0.0000 O   0  0  0  0  0  0  0  0  0  0  0  0
    2.1750   -2.8875    0.0000 O   0  0  0  0  0  0  0  0  0  0  0  0
   -2.9833    3.6458    0.0000 C   0  0  0  0  0  0  0  0  0  0  0  0
   -3.8458    3.1458    0.0000 C   0  0  0  0  0  0  0  0  0  0  0  0
   -3.8458    2.1333    0.0000 C   0  0  0  0  0  0  0  0  0  0  0  0
   -2.9833    0.6375    0.0000 C   0  0  0  0  0  0  0  0  0  0  0  0
    3.8375    0.3208    0.0000 C   0  0  0  0  0  0  0  0  0  0  0  0
    1.5125   -3.6417    0.0000 C   0  0  0  0  0  0  0  0  0  0  0  0
  2  1  1  0  0  0  0
  3  2  1  0  0  0  0
  4  1  1  0  0  0  0
  5  3  2  0  0  0  0
  6  3  1  0  0  0  0
  7  5  1  0  0  0  0
  8  4  1  0  0  0  0
  9  2  1  0  0  0  0
 10  1  2  0  0  0  0
 11  1  2  0  0  0  0
 12 14  1  0  0  0  0
 13  4  2  0  0  0  0
 14  6  2  0  0  0  0
 15  8  2  0  0  0  0
 16  9  1  0  0  0  0
 17  7  2  0  0  0  0
 18 19  2  0  0  0  0
 19 13  1  0  0  0  0
 20  8  1  0  0  0  0
 21 18  1  0  0  0  0
 22 12  2  0  0  0  0
 23 22  1  0  0  0  0
 24 17  1  0  0  0  0
 25 17  1  0  0  0  0
 26 20  1  0  0  0  0
 27 21  1  0  0  0  0
  6 16  1  0  0  0  0
 18 15  1  0  0  0  0
  7 12  1  0  0  0  0
 24 23  2  0  0  0  0
M  END
>  <Code> (P7020531170)
P7020531170

>  <Number of H-Donors> (P7020531170)
0

>  <Number of H-Acceptors> (P7020531170)
5

>  <Number of Rotatable bonds> (P7020531170)
4

>  <CLogP> (P7020531170)
3.800000000000000e+000

>  <Number of Rings> (P7020531170)
4

>  <PSA> (P7020531170)
7.709999999999999e+001

$$$$

  -ISIS-  11102212342D

 26 29  0  0  0  0  0  0  0  0999 V2000
    0.9167    1.8458    0.0000 N   0  0  3  0  0  0  0  0  0  0  0  0
    1.2417    0.8958    0.0000 S   0  0  3  0  0  0  0  0  0  0  0  0
   -0.0375    2.1500    0.0000 C   0  0  0  0  0  0  0  0  0  0  0  0
   -0.9000    1.6458    0.0000 N   0  0  0  0  0  0  0  0  0  0  0  0
   -0.0458    3.1458    0.0000 C   0  0  0  0  0  0  0  0  0  0  0  0
   -1.7708    2.1458    0.0000 C   0  0  0  0  0  0  0  0  0  0  0  0
    1.5000    2.6625    0.0000 C   0  0  0  0  0  0  0  0  0  0  0  0
    1.5625   -0.0542    0.0000 C   0  0  0  0  0  0  0  0  0  0  0  0
   -1.7708    3.1458    0.0000 C   0  0  0  0  0  0  0  0  0  0  0  0
    0.2917    0.5750    0.0000 O   0  0  0  0  0  0  0  0  0  0  0  0
    2.1792    1.2125    0.0000 O   0  0  0  0  0  0  0  0  0  0  0  0
   -0.9125    3.6458    0.0000 C   0  0  0  0  0  0  0  0  0  0  0  0
    0.9000    3.4625    0.0000 C   0  0  0  0  0  0  0  0  0  0  0  0
    2.1917   -1.9417    0.0000 C   0  0  0  0  0  0  0  0  0  0  0  0
   -2.6375    1.6333    0.0000 C   0  0  0  0  0  0  0  0  0  0  0  0
    0.8917   -0.8000    0.0000 C   0  0  0  0  0  0  0  0  0  0  0  0
    2.5292   -0.2417    0.0000 C   0  0  0  0  0  0  0  0  0  0  0  0
    2.8625   -1.1875    0.0000 C   0  0  0  0  0  0  0  0  0  0  0  0
    1.2125   -1.7417    0.0000 C   0  0  0  0  0  0  0  0  0  0  0  0
    2.5042   -2.8875    0.0000 C   0  0  3  0  0  0  0  0  0  0  0  0
   -2.6375    3.6458    0.0000 C   0  0  0  0  0  0  0  0  0  0  0  0
   -3.5000    3.1458    0.0000 C   0  0  0  0  0  0  0  0  0  0  0  0
   -3.5000    2.1333    0.0000 C   0  0  0  0  0  0  0  0  0  0  0  0
   -2.6375    0.6375    0.0000 C   0  0  0  0  0  0  0  0  0  0  0  0
    1.8542   -3.6417    0.0000 C   0  0  0  0  0  0  0  0  0  0  0  0
    3.4917   -3.0917    0.0000 C   0  0  0  0  0  0  0  0  0  0  0  0
  2  1  1  0  0  0  0
  3  1  1  0  0  0  0
  4  3  2  0  0  0  0
  5  3  1  0  0  0  0
  6  4  1  0  0  0  0
  7  1  1  0  0  0  0
  8  2  1  0  0  0  0
  9 12  1  0  0  0  0
 10  2  2  0  0  0  0
 11  2  2  0  0  0  0
 12  5  2  0  0  0  0
 13  7  1  0  0  0  0
 14 18  1  0  0  0  0
 15  6  2  0  0  0  0
 16  8  2  0  0  0  0
 17  8  1  0  0  0  0
 18 17  2  0  0  0  0
 19 16  1  0  0  0  0
 20 14  1  0  0  0  0
 21  9  2  0  0  0  0
 22 21  1  0  0  0  0
 23 15  1  0  0  0  0
 24 15  1  0  0  0  0
 25 20  1  0  0  0  0
 26 20  1  0  0  0  0
  5 13  1  0  0  0  0
  6  9  1  0  0  0  0
 14 19  2  0  0  0  0
 23 22  2  0  0  0  0
M  END
>  <Code> (P7020531161)
P7020531161

>  <Number of H-Donors> (P7020531161)
0

>  <Number of H-Acceptors> (P7020531161)
3

>  <Number of Rotatable bonds> (P7020531161)
3

>  <CLogP> (P7020531161)
5.000000000000000e+000

>  <Number of Rings> (P7020531161)
4

>  <PSA> (P7020531161)
5.870000000000000e+001

$$$$

  -ISIS-  11102212342D

 24 27  0  0  0  0  0  0  0  0999 V2000
   -0.0833    0.4458    0.0000 N   0  0  3  0  0  0  0  0  0  0  0  0
   -1.0333    0.7500    0.0000 C   0  0  0  0  0  0  0  0  0  0  0  0
   -1.8958    0.2458    0.0000 N   0  0  0  0  0  0  0  0  0  0  0  0
    0.2500   -0.5000    0.0000 C   0  0  0  0  0  0  0  0  0  0  0  0
   -1.0333    1.7458    0.0000 C   0  0  0  0  0  0  0  0  0  0  0  0
   -2.7583    0.7458    0.0000 C   0  0  0  0  0  0  0  0  0  0  0  0
    0.5042    1.2625    0.0000 C   0  0  0  0  0  0  0  0  0  0  0  0
   -2.7583    1.7375    0.0000 C   0  0  0  0  0  0  0  0  0  0  0  0
   -1.9083    2.2458    0.0000 C   0  0  0  0  0  0  0  0  0  0  0  0
    1.2167   -0.6917    0.0000 C   0  0  0  0  0  0  0  0  0  0  0  0
   -0.4208   -1.2417    0.0000 O   0  0  0  0  0  0  0  0  0  0  0  0
   -0.0958    2.0625    0.0000 C   0  0  0  0  0  0  0  0  0  0  0  0
   -3.6333    0.2375    0.0000 C   0  0  0  0  0  0  0  0  0  0  0  0
    1.5375   -1.6417    0.0000 C   0  0  0  0  0  0  0  0  0  0  0  0
    1.8792    0.0583    0.0000 C   0  0  0  0  0  0  0  0  0  0  0  0
    3.1875   -1.0917    0.0000 C   0  0  0  0  0  0  0  0  0  0  0  0
    2.8625   -0.1417    0.0000 C   0  0  0  0  0  0  0  0  0  0  0  0
    2.5167   -1.8500    0.0000 C   0  0  0  0  0  0  0  0  0  0  0  0
    4.1625   -1.2917    0.0000 O   0  0  0  0  0  0  0  0  0  0  0  0
   -3.6333    2.2375    0.0000 C   0  0  0  0  0  0  0  0  0  0  0  0
   -4.4958    1.7375    0.0000 C   0  0  0  0  0  0  0  0  0  0  0  0
   -4.4958    0.7333    0.0000 C   0  0  0  0  0  0  0  0  0  0  0  0
   -3.6333   -0.7625    0.0000 C   0  0  0  0  0  0  0  0  0  0  0  0
    4.4875   -2.2417    0.0000 C   0  0  0  0  0  0  0  0  0  0  0  0
  2  1  1  0  0  0  0
  3  2  2  0  0  0  0
  4  1  1  0  0  0  0
  5  2  1  0  0  0  0
  6  3  1  0  0  0  0
  7  1  1  0  0  0  0
  8  9  1  0  0  0  0
  9  5  2  0  0  0  0
 10  4  1  0  0  0  0
 11  4  2  0  0  0  0
 12  7  1  0  0  0  0
 13  6  2  0  0  0  0
 14 10  2  0  0  0  0
 15 10  1  0  0  0  0
 16 17  1  0  0  0  0
 17 15  2  0  0  0  0
 18 14  1  0  0  0  0
 19 16  1  0  0  0  0
 20  8  2  0  0  0  0
 21 20  1  0  0  0  0
 22 13  1  0  0  0  0
 23 13  1  0  0  0  0
 24 19  1  0  0  0  0
 12  5  1  0  0  0  0
 18 16  2  0  0  0  0
  8  6  1  0  0  0  0
 21 22  2  0  0  0  0
M  END
>  <Code> (P7020531123)
P7020531123

>  <Number of H-Donors> (P7020531123)
0

>  <Number of H-Acceptors> (P7020531123)
3

>  <Number of Rotatable bonds> (P7020531123)
2

>  <CLogP> (P7020531123)
4.100000000000000e+000

>  <Number of Rings> (P7020531123)
4

>  <PSA> (P7020531123)
4.240000000000001e+001

$$$$

  -ISIS-  11102212342D

 24 27  0  0  0  0  0  0  0  0999 V2000
    1.8917    0.6000    0.0000 S   0  0  3  0  0  0  0  0  0  0  0  0
    1.5667    1.5500    0.0000 N   0  0  3  0  0  0  0  0  0  0  0  0
    0.6167    1.8583    0.0000 C   0  0  0  0  0  0  0  0  0  0  0  0
   -0.2583    1.3458    0.0000 N   0  0  0  0  0  0  0  0  0  0  0  0
    0.6042    2.8500    0.0000 C   0  0  0  0  0  0  0  0  0  0  0  0
    2.1500    2.3708    0.0000 C   0  0  0  0  0  0  0  0  0  0  0  0
    2.2042   -0.3500    0.0000 C   0  0  0  0  0  0  0  0  0  0  0  0
    0.9417    0.2833    0.0000 O   0  0  0  0  0  0  0  0  0  0  0  0
    2.8417    0.9208    0.0000 O   0  0  0  0  0  0  0  0  0  0  0  0
   -1.1208    1.8458    0.0000 C   0  0  0  0  0  0  0  0  0  0  0  0
   -0.2583    3.3583    0.0000 C   0  0  0  0  0  0  0  0  0  0  0  0
   -1.1208    2.8458    0.0000 C   0  0  0  0  0  0  0  0  0  0  0  0
    1.5542    3.1708    0.0000 C   0  0  0  0  0  0  0  0  0  0  0  0
    1.5417   -1.0917    0.0000 C   0  0  0  0  0  0  0  0  0  0  0  0
    0.2250   -2.5917    0.0000 C   0  0  0  0  0  0  0  0  0  0  0  0
   -0.4375   -3.3417    0.0000 Cl  0  0  0  0  0  0  0  0  0  0  0  0
    1.8667   -2.0417    0.0000 C   0  0  0  0  0  0  0  0  0  0  0  0
    0.5667   -0.8917    0.0000 C   0  0  0  0  0  0  0  0  0  0  0  0
   -0.0958   -1.6375    0.0000 C   0  0  0  0  0  0  0  0  0  0  0  0
    1.2125   -2.7875    0.0000 C   0  0  0  0  0  0  0  0  0  0  0  0
   -1.9833    1.3458    0.0000 C   0  0  0  0  0  0  0  0  0  0  0  0
   -1.9833    3.3458    0.0000 C   0  0  0  0  0  0  0  0  0  0  0  0
   -2.8458    2.8458    0.0000 C   0  0  0  0  0  0  0  0  0  0  0  0
   -2.8458    1.8375    0.0000 C   0  0  0  0  0  0  0  0  0  0  0  0
  2  1  1  0  0  0  0
  3  2  1  0  0  0  0
  4  3  2  0  0  0  0
  5  3  1  0  0  0  0
  6  2  1  0  0  0  0
  7  1  1  0  0  0  0
  8  1  2  0  0  0  0
  9  1  2  0  0  0  0
 10  4  1  0  0  0  0
 11  5  2  0  0  0  0
 12 11  1  0  0  0  0
 13  6  1  0  0  0  0
 14  7  1  0  0  0  0
 15 19  2  0  0  0  0
 16 15  1  0  0  0  0
 17 14  1  0  0  0  0
 18 14  2  0  0  0  0
 19 18  1  0  0  0  0
 20 17  2  0  0  0  0
 21 10  2  0  0  0  0
 22 12  2  0  0  0  0
 23 22  1  0  0  0  0
 24 21  1  0  0  0  0
  5 13  1  0  0  0  0
 15 20  1  0  0  0  0
 10 12  1  0  0  0  0
 24 23  2  0  0  0  0
M  END
>  <Code> (P7020530855)
P7020530855

>  <Number of H-Donors> (P7020530855)
0

>  <Number of H-Acceptors> (P7020530855)
3

>  <Number of Rotatable bonds> (P7020530855)
3

>  <CLogP> (P7020530855)
4.000000000000000e+000

>  <Number of Rings> (P7020530855)
4

>  <PSA> (P7020530855)
5.870000000000000e+001

$$$$

  -ISIS-  11102212342D

 23 24  0  0  0  0  0  0  0  0999 V2000
   -2.6958    2.1458    0.0000 N   0  0  0  0  0  0  0  0  0  0  0  0
   -2.7125    2.9583    0.0000 C   0  0  0  0  0  0  0  0  0  0  0  0
   -1.9958    3.3708    0.0000 C   0  0  0  0  0  0  0  0  0  0  0  0
   -1.9750    1.7333    0.0000 C   0  0  0  0  0  0  0  0  0  0  0  0
   -1.2708    2.1333    0.0000 N   0  0  0  0  0  0  0  0  0  0  0  0
   -1.2708    2.9583    0.0000 C   0  0  0  0  0  0  0  0  0  0  0  0
    1.5917    2.1500    0.0000 C   0  0  0  0  0  0  0  0  0  0  0  0
   -1.9708    0.9083    0.0000 S   0  0  0  0  0  0  0  0  0  0  0  0
   -3.4208    3.3625    0.0000 O   0  0  0  0  0  0  0  0  0  0  0  0
    0.8792    1.7375    0.0000 C   0  0  0  0  0  0  0  0  0  0  0  0
    1.5917    2.9833    0.0000 O   0  0  0  0  0  0  0  0  0  0  0  0
    0.8792    0.9083    0.0000 C   0  0  0  0  0  0  0  0  0  0  0  0
    0.1667    2.1500    0.0000 C   0  0  0  0  0  0  0  0  0  0  0  0
   -1.9958    4.1875    0.0000 C   0  0  0  0  0  0  0  0  0  0  0  0
   -1.2583    0.4958    0.0000 C   0  0  0  0  0  0  0  0  0  0  0  0
    2.3167    1.7458    0.0000 O   0  0  0  0  0  0  0  0  0  0  0  0
   -0.5458    0.9083    0.0000 C   0  0  0  0  0  0  0  0  0  0  0  0
    0.1667    0.4958    0.0000 C   0  0  0  0  0  0  0  0  0  0  0  0
   -0.5458    1.7333    0.0000 C   0  0  0  0  0  0  0  0  0  0  0  0
   -0.5625    3.3708    0.0000 C   0  0  0  0  0  0  0  0  0  0  0  0
   -1.2750    5.4167    0.0000 O   0  0  0  0  0  0  0  0  0  0  0  0
   -1.2750    4.5917    0.0000 C   0  0  0  0  0  0  0  0  0  0  0  0
    2.3167    0.9208    0.0000 C   0  0  0  0  0  0  0  0  0  0  0  0
  2  1  1  0  0  0  0
  3  2  1  0  0  0  0
  4  1  1  0  0  0  0
  5  4  2  0  0  0  0
  6  5  1  0  0  0  0
  7 10  1  0  0  0  0
  8  4  1  0  0  0  0
  9  2  2  0  0  0  0
 10 13  2  0  0  0  0
 11  7  2  0  0  0  0
 12 18  2  0  0  0  0
 13 19  1  0  0  0  0
 14  3  1  0  0  0  0
 15  8  1  0  0  0  0
 16  7  1  0  0  0  0
 17 15  1  0  0  0  0
 18 17  1  0  0  0  0
 19 17  2  0  0  0  0
 20  6  1  0  0  0  0
 21 22  1  0  0  0  0
 22 14  1  0  0  0  0
 23 16  1  0  0  0  0
  3  6  2  0  0  0  0
 12 10  1  0  0  0  0
M  END
>  <Code> (P7020526960)
P7020526960

>  <Number of H-Donors> (P7020526960)
2

>  <Number of H-Acceptors> (P7020526960)
6

>  <Number of Rotatable bonds> (P7020526960)
7

>  <CLogP> (P7020526960)
2.100000000000000e+000

>  <Number of Rings> (P7020526960)
2

>  <PSA> (P7020526960)
1.133000000000000e+002

$$$$

  -ISIS-  11102212342D

 25 26  0  0  0  0  0  0  0  0999 V2000
    2.7250    0.5958    0.0000 C   0  0  0  0  0  0  0  0  0  0  0  0
    6.1000    1.2458    0.0000 N   0  0  0  0  0  0  0  0  0  0  0  0
    1.5667    0.9708    0.0000 C   0  0  0  0  0  0  0  0  0  0  0  0
    6.8500    1.2458    0.0000 C   0  0  0  0  0  0  0  0  0  0  0  0
    7.2250    1.8958    0.0000 C   0  0  0  0  0  0  0  0  0  0  0  0
    2.2792   -0.0125    0.0000 N   0  0  0  0  0  0  0  0  0  0  0  0
    5.7250    1.8958    0.0000 C   0  0  0  0  0  0  0  0  0  0  0  0
    6.1000    2.5458    0.0000 N   0  0  0  0  0  0  0  0  0  0  0  0
    2.2792    1.2000    0.0000 S   0  0  0  0  0  0  0  0  0  0  0  0
    6.8500    2.5458    0.0000 C   0  0  0  0  0  0  0  0  0  0  0  0
    1.5667    0.2208    0.0000 C   0  0  0  0  0  0  0  0  0  0  0  0
    3.4750    0.5958    0.0000 N   0  0  0  0  0  0  0  0  0  0  0  0
    3.8500    1.2458    0.0000 C   0  0  0  0  0  0  0  0  0  0  0  0
    0.9625    1.4125    0.0000 C   0  0  0  0  0  0  0  0  0  0  0  0
    4.9750    1.8958    0.0000 S   0  0  0  0  0  0  0  0  0  0  0  0
    7.2250    0.5958    0.0000 O   0  0  0  0  0  0  0  0  0  0  0  0
    3.4750    1.8958    0.0000 O   0  0  0  0  0  0  0  0  0  0  0  0
    1.0417    2.1583    0.0000 O   0  0  0  0  0  0  0  0  0  0  0  0
    4.6000    1.2458    0.0000 C   0  0  0  0  0  0  0  0  0  0  0  0
    7.9750    1.8958    0.0000 C   0  0  0  0  0  0  0  0  0  0  0  0
    7.2250    3.1958    0.0000 C   0  0  0  0  0  0  0  0  0  0  0  0
    0.9625   -0.2167    0.0000 C   0  0  0  0  0  0  0  0  0  0  0  0
    9.1000    2.5458    0.0000 O   0  0  0  0  0  0  0  0  0  0  0  0
    0.2750    1.1083    0.0000 C   0  0  0  0  0  0  0  0  0  0  0  0
    8.3500    2.5458    0.0000 C   0  0  0  0  0  0  0  0  0  0  0  0
  2  7  1  0  0  0  0
  3  9  1  0  0  0  0
  4  2  1  0  0  0  0
  5 10  2  0  0  0  0
  6  1  2  0  0  0  0
  7 15  1  0  0  0  0
  8  7  2  0  0  0  0
  9  1  1  0  0  0  0
 10  8  1  0  0  0  0
 11  6  1  0  0  0  0
 12  1  1  0  0  0  0
 13 12  1  0  0  0  0
 14  3  1  0  0  0  0
 15 19  1  0  0  0  0
 16  4  2  0  0  0  0
 17 13  2  0  0  0  0
 18 14  2  0  0  0  0
 19 13  1  0  0  0  0
 20  5  1  0  0  0  0
 21 10  1  0  0  0  0
 22 11  1  0  0  0  0
 23 25  1  0  0  0  0
 24 14  1  0  0  0  0
 25 20  1  0  0  0  0
  3 11  2  0  0  0  0
  4  5  1  0  0  0  0
M  END
>  <Code> (P7020526917)
P7020526917

>  <Number of H-Donors> (P7020526917)
3

>  <Number of H-Acceptors> (P7020526917)
7

>  <Number of Rotatable bonds> (P7020526917)
7

>  <CLogP> (P7020526917)
6.000000000000000e-001

>  <Number of Rings> (P7020526917)
2

>  <PSA> (P7020526917)
1.743000000000000e+002

$$$$

  -ISIS-  11102212342D

 23 25  0  0  0  0  0  0  0  0999 V2000
   -2.1583   -0.3167    0.0000 C   0  0  0  0  0  0  0  0  0  0  0  0
   -1.4125    0.3708    0.0000 N   0  0  0  0  0  0  0  0  0  0  0  0
   -0.5458   -0.1292    0.0000 C   0  0  0  0  0  0  0  0  0  0  0  0
    2.9042   -0.1500    0.0000 N   0  0  3  0  0  0  0  0  0  0  0  0
   -1.7458   -1.2167    0.0000 S   0  0  0  0  0  0  0  0  0  0  0  0
    2.0417    0.3500    0.0000 C   0  0  0  0  0  0  0  0  0  0  0  0
   -0.7458   -1.1167    0.0000 C   0  0  0  0  0  0  0  0  0  0  0  0
   -3.1500   -0.3000    0.0000 N   0  0  0  0  0  0  0  0  0  0  0  0
    3.7875    0.3500    0.0000 C   0  0  0  0  0  0  0  0  0  0  0  0
    0.3250    0.3500    0.0000 C   0  0  0  0  0  0  0  0  0  0  0  0
    1.1875   -0.1500    0.0000 C   0  0  0  0  0  0  0  0  0  0  0  0
    2.9167    1.8625    0.0000 O   0  0  0  0  0  0  0  0  0  0  0  0
    2.0417    1.3625    0.0000 C   0  0  0  0  0  0  0  0  0  0  0  0
   -4.1458   -0.3000    0.0000 C   0  0  0  0  0  0  0  0  0  0  0  0
    3.7875    1.3625    0.0000 C   0  0  0  0  0  0  0  0  0  0  0  0
    4.6417   -0.1500    0.0000 O   0  0  0  0  0  0  0  0  0  0  0  0
    0.3250    1.3625    0.0000 C   0  0  0  0  0  0  0  0  0  0  0  0
   -4.6458    0.5625    0.0000 O   0  0  0  0  0  0  0  0  0  0  0  0
    1.1875    1.8625    0.0000 C   0  0  0  0  0  0  0  0  0  0  0  0
    2.9042   -1.1417    0.0000 C   0  0  0  0  0  0  0  0  0  0  0  0
   -0.0833   -1.8542    0.0000 C   0  0  0  0  0  0  0  0  0  0  0  0
   -4.6583   -1.1625    0.0000 C   0  0  0  0  0  0  0  0  0  0  0  0
    2.0417   -1.6417    0.0000 C   0  0  0  0  0  0  0  0  0  0  0  0
  2  1  2  0  0  0  0
  3  2  1  0  0  0  0
  4  6  1  0  0  0  0
  5  1  1  0  0  0  0
  6 11  2  0  0  0  0
  7  5  1  0  0  0  0
  8  1  1  0  0  0  0
  9  4  1  0  0  0  0
 10  3  1  0  0  0  0
 11 10  1  0  0  0  0
 12 13  1  0  0  0  0
 13 19  2  0  0  0  0
 14  8  1  0  0  0  0
 15 12  1  0  0  0  0
 16  9  2  0  0  0  0
 17 10  2  0  0  0  0
 18 14  2  0  0  0  0
 19 17  1  0  0  0  0
 20  4  1  0  0  0  0
 21  7  1  0  0  0  0
 22 14  1  0  0  0  0
 23 20  1  0  0  0  0
  7  3  2  0  0  0  0
 13  6  1  0  0  0  0
 15  9  1  0  0  0  0
M  END
>  <Code> (P7020460236)
P7020460236

>  <Number of H-Donors> (P7020460236)
1

>  <Number of H-Acceptors> (P7020460236)
4

>  <Number of Rotatable bonds> (P7020460236)
3

>  <CLogP> (P7020460236)
1.400000000000000e+000

>  <Number of Rings> (P7020460236)
3

>  <PSA> (P7020460236)
9.980000000000001e+001

$$$$

  -ISIS-  11102212342D

 18 19  0  0  0  0  0  0  0  0999 V2000
    7.6417   -7.3792    0.0000 C   0  0  0  0  0  0  0  0  0  0  0  0
    6.8167   -7.3792    0.0000 S   0  0  0  0  0  0  0  0  0  0  0  0
    7.2292   -6.1125    0.0000 N   0  0  0  0  0  0  0  0  0  0  0  0
    6.5667   -6.5917    0.0000 C   0  0  0  0  0  0  0  0  0  0  0  0
    7.9000   -6.5917    0.0000 C   0  0  0  0  0  0  0  0  0  0  0  0
    8.1292   -8.0500    0.0000 C   0  0  0  0  0  0  0  0  0  0  0  0
    5.7792   -6.3417    0.0000 C   0  0  0  0  0  0  0  0  0  0  0  0
    7.7917   -8.8042    0.0000 O   0  0  0  0  0  0  0  0  0  0  0  0
    5.6125   -5.5375    0.0000 C   0  0  0  0  0  0  0  0  0  0  0  0
    5.1750   -6.8917    0.0000 C   0  0  0  0  0  0  0  0  0  0  0  0
    8.9500   -7.9625    0.0000 O   0  0  0  0  0  0  0  0  0  0  0  0
    4.2167   -5.8292    0.0000 C   0  0  0  0  0  0  0  0  0  0  0  0
    4.3917   -6.6417    0.0000 C   0  0  0  0  0  0  0  0  0  0  0  0
    4.8292   -5.2792    0.0000 C   0  0  0  0  0  0  0  0  0  0  0  0
    8.6875   -6.3417    0.0000 C   0  0  0  0  0  0  0  0  0  0  0  0
    3.4292   -5.5792    0.0000 F   0  0  0  0  0  0  0  0  0  0  0  0
    9.2792   -7.2125    0.0000 C   0  0  0  0  0  0  0  0  0  0  0  0
   10.1042   -7.1250    0.0000 C   0  0  0  0  0  0  0  0  0  0  0  0
  2  1  1  0  0  0  0
  3  5  1  0  0  0  0
  4  2  1  0  0  0  0
  5  1  2  0  0  0  0
  6  1  1  0  0  0  0
  7  4  1  0  0  0  0
  8  6  2  0  0  0  0
  9  7  2  0  0  0  0
 10  7  1  0  0  0  0
 11  6  1  0  0  0  0
 12 13  1  0  0  0  0
 13 10  2  0  0  0  0
 14  9  1  0  0  0  0
 15  5  1  0  0  0  0
 16 12  1  0  0  0  0
 17 11  1  0  0  0  0
 18 17  1  0  0  0  0
  4  3  2  0  0  0  0
 12 14  2  0  0  0  0
M  END
>  <Code> (P7020402297)
P7020402297

>  <Number of H-Donors> (P7020402297)
0

>  <Number of H-Acceptors> (P7020402297)
3

>  <Number of Rotatable bonds> (P7020402297)
4

>  <CLogP> (P7020402297)
3.200000000000000e+000

>  <Number of Rings> (P7020402297)
2

>  <PSA> (P7020402297)
6.740000000000001e+001

$$$$

  -ISIS-  11102212342D

 25 26  0  0  0  0  0  0  0  0999 V2000
   -0.1333   -2.6875    0.0000 C   0  0  0  0  0  0  0  0  0  0  0  0
   -0.8375   -3.1000    0.0000 C   0  0  0  0  0  0  0  0  0  0  0  0
    0.5875   -3.1000    0.0000 C   0  0  0  0  0  0  0  0  0  0  0  0
   -0.1333   -1.8625    0.0000 N   0  0  0  0  0  0  0  0  0  0  0  0
   -0.8375   -3.9292    0.0000 C   0  0  0  0  0  0  0  0  0  0  0  0
   -0.1208   -4.3417    0.0000 N   0  0  0  0  0  0  0  0  0  0  0  0
   -0.8583   -1.4500    0.0000 C   0  0  0  0  0  0  0  0  0  0  0  0
    1.3000   -2.6792    0.0000 C   0  0  0  0  0  0  0  0  0  0  0  0
    0.5917   -3.9250    0.0000 C   0  0  0  0  0  0  0  0  0  0  0  0
   -1.5583   -4.3500    0.0000 C   0  0  0  0  0  0  0  0  0  0  0  0
   -1.5583   -2.6917    0.0000 C   0  0  0  0  0  0  0  0  0  0  0  0
   -0.8500   -0.6125    0.0000 C   0  0  0  0  0  0  0  0  0  0  0  0
   -2.2708   -3.9375    0.0000 C   0  0  0  0  0  0  0  0  0  0  0  0
   -1.5708   -1.8625    0.0000 C   0  0  0  0  0  0  0  0  0  0  0  0
    1.2917   -1.8542    0.0000 O   0  0  0  0  0  0  0  0  0  0  0  0
   -2.2708   -3.1125    0.0000 C   0  0  0  0  0  0  0  0  0  0  0  0
   -1.5708   -0.2000    0.0000 C   0  0  0  0  0  0  0  0  0  0  0  0
    2.0167   -3.0875    0.0000 O   0  0  0  0  0  0  0  0  0  0  0  0
   -2.2875   -1.4500    0.0000 C   0  0  0  0  0  0  0  0  0  0  0  0
   -2.2875   -0.6125    0.0000 C   0  0  0  0  0  0  0  0  0  0  0  0
   -0.1333   -0.2042    0.0000 O   0  0  0  0  0  0  0  0  0  0  0  0
    1.6875   -0.1167    0.0000 Cl  0  0  0  0  0  0  0  0  0  0  0  0
   -1.5500   -5.1750    0.0000 C   0  0  0  0  0  0  0  0  0  0  0  0
   -2.9750   -2.7000    0.0000 C   0  0  0  0  0  0  0  0  0  0  0  0
   -3.0000   -1.8667    0.0000 C   0  0  0  0  0  0  0  0  0  0  0  0
  2  1  1  0  0  0  0
  3  1  2  0  0  0  0
  4  1  1  0  0  0  0
  5  2  1  0  0  0  0
  6  9  2  0  0  0  0
  7  4  1  0  0  0  0
  8  3  1  0  0  0  0
  9  3  1  0  0  0  0
 10  5  2  0  0  0  0
 11  2  2  0  0  0  0
 12  7  2  0  0  0  0
 13 16  2  0  0  0  0
 14  7  1  0  0  0  0
 15  8  2  0  0  0  0
 16 11  1  0  0  0  0
 17 12  1  0  0  0  0
 18  8  1  0  0  0  0
 19 14  2  0  0  0  0
 20 19  1  0  0  0  0
 21 12  1  0  0  0  0
 23 10  1  0  0  0  0
 24 16  1  0  0  0  0
 25 19  1  0  0  0  0
  5  6  1  0  0  0  0
 10 13  1  0  0  0  0
 20 17  2  0  0  0  0
M  END
>  <Code> (P7020370080)
P7020370080

>  <Saltdata> (P7020370080)
HCl

>  <Number of H-Donors> (P7020370080)
3

>  <Number of H-Acceptors> (P7020370080)
5

>  <Number of Rotatable bonds> (P7020370080)
3

>  <CLogP> (P7020370080)
4.800000000000000e+000

>  <Number of Rings> (P7020370080)
3

>  <PSA> (P7020370080)
8.250000000000000e+001

$$$$

  -ISIS-  11102212342D

 26 27  0  0  0  0  0  0  0  0999 V2000
   -0.7625   -3.3792    0.0000 C   0  0  0  0  0  0  0  0  0  0  0  0
   -0.1333   -3.7417    0.0000 C   0  0  0  0  0  0  0  0  0  0  0  0
   -1.3750   -3.7417    0.0000 C   0  0  0  0  0  0  0  0  0  0  0  0
   -0.7500   -4.8250    0.0000 N   0  0  0  0  0  0  0  0  0  0  0  0
    0.4917   -0.4875    0.0000 C   0  0  3  0  0  0  0  0  0  0  0  0
   -1.3750   -4.4625    0.0000 C   0  0  0  0  0  0  0  0  0  0  0  0
    0.4917   -3.3667    0.0000 C   0  0  0  0  0  0  0  0  0  0  0  0
   -0.1250   -4.4625    0.0000 C   0  0  0  0  0  0  0  0  0  0  0  0
   -0.7625   -2.6542    0.0000 N   0  0  0  0  0  0  0  0  0  0  0  0
   -0.1333   -0.8500    0.0000 C   0  0  0  0  0  0  0  0  0  0  0  0
   -0.7500   -1.9375    0.0000 C   0  0  0  0  0  0  0  0  0  0  0  0
   -0.1333   -1.5875    0.0000 C   0  0  0  0  0  0  0  0  0  0  0  0
    0.4917   -2.6500    0.0000 O   0  0  0  0  0  0  0  0  0  0  0  0
   -2.0000   -4.8375    0.0000 C   0  0  0  0  0  0  0  0  0  0  0  0
    0.4917    0.2375    0.0000 F   0  0  0  0  0  0  0  0  0  0  0  0
    0.6750   -1.1875    0.0000 F   0  0  0  0  0  0  0  0  0  0  0  0
    1.1125   -0.8500    0.0000 F   0  0  0  0  0  0  0  0  0  0  0  0
    1.1167   -3.7292    0.0000 O   0  0  0  0  0  0  0  0  0  0  0  0
   -2.0000   -3.3792    0.0000 C   0  0  0  0  0  0  0  0  0  0  0  0
   -2.1583   -2.2125    0.0000 Cl  0  0  0  0  0  0  0  0  0  0  0  0
   -0.7625   -0.4875    0.0000 C   0  0  0  0  0  0  0  0  0  0  0  0
   -2.6250   -3.7417    0.0000 C   0  0  0  0  0  0  0  0  0  0  0  0
   -1.3833   -0.8625    0.0000 C   0  0  0  0  0  0  0  0  0  0  0  0
   -1.3833   -1.5750    0.0000 C   0  0  0  0  0  0  0  0  0  0  0  0
   -2.6250   -4.4750    0.0000 C   0  0  0  0  0  0  0  0  0  0  0  0
   -2.0000   -5.5625    0.0000 C   0  0  0  0  0  0  0  0  0  0  0  0
  2  1  2  0  0  0  0
  3  1  1  0  0  0  0
  4  6  1  0  0  0  0
  5 10  1  0  0  0  0
  6  3  1  0  0  0  0
  7  2  1  0  0  0  0
  8  2  1  0  0  0  0
  9  1  1  0  0  0  0
 10 12  2  0  0  0  0
 11  9  1  0  0  0  0
 12 11  1  0  0  0  0
 13  7  2  0  0  0  0
 14  6  2  0  0  0  0
 15  5  1  0  0  0  0
 16  5  1  0  0  0  0
 17  5  1  0  0  0  0
 18  7  1  0  0  0  0
 19  3  2  0  0  0  0
 21 23  2  0  0  0  0
 22 19  1  0  0  0  0
 23 24  1  0  0  0  0
 24 11  2  0  0  0  0
 25 22  2  0  0  0  0
 26 14  1  0  0  0  0
  4  8  2  0  0  0  0
 14 25  1  0  0  0  0
 21 10  1  0  0  0  0
M  END
>  <Code> (P7020370046)
P7020370046

>  <Saltdata> (P7020370046)
HCl

>  <Number of H-Donors> (P7020370046)
2

>  <Number of H-Acceptors> (P7020370046)
4

>  <Number of Rotatable bonds> (P7020370046)
4

>  <CLogP> (P7020370046)
5.000000000000000e+000

>  <Number of Rings> (P7020370046)
3

>  <PSA> (P7020370046)
6.220000000000000e+001

$$$$

  -ISIS-  11102212342D

 22 23  0  0  0  0  0  0  0  0999 V2000
    0.7167   -2.9125    0.0000 C   0  0  0  0  0  0  0  0  0  0  0  0
   -0.6625   -2.9167    0.0000 C   0  0  0  0  0  0  0  0  0  0  0  0
    0.0250   -2.5125    0.0000 C   0  0  0  0  0  0  0  0  0  0  0  0
   -0.6625   -3.7250    0.0000 C   0  0  0  0  0  0  0  0  0  0  0  0
    0.0292   -4.1250    0.0000 N   0  0  0  0  0  0  0  0  0  0  0  0
    1.4042   -2.5000    0.0000 C   0  0  0  0  0  0  0  0  0  0  0  0
    0.7167   -3.7167    0.0000 C   0  0  0  0  0  0  0  0  0  0  0  0
   -1.3583   -4.1292    0.0000 C   0  0  0  0  0  0  0  0  0  0  0  0
   -1.3583   -2.5125    0.0000 C   0  0  0  0  0  0  0  0  0  0  0  0
    1.4042   -1.7000    0.0000 O   0  0  0  0  0  0  0  0  0  0  0  0
    0.0167   -1.6875    0.0000 N   0  0  0  0  0  0  0  0  0  0  0  0
   -2.0458   -3.7250    0.0000 C   0  0  0  0  0  0  0  0  0  0  0  0
   -2.0458   -2.9167    0.0000 C   0  0  0  0  0  0  0  0  0  0  0  0
    2.0917   -2.9000    0.0000 O   0  0  0  0  0  0  0  0  0  0  0  0
   -3.0375   -1.3667    0.0000 Cl  0  0  0  0  0  0  0  0  0  0  0  0
   -1.4125   -0.0000    0.0000 O   0  0  0  0  0  0  0  0  0  0  0  0
   -1.3583   -4.9292    0.0000 C   0  0  0  0  0  0  0  0  0  0  0  0
   -0.6958   -1.2750    0.0000 C   0  0  0  0  0  0  0  0  0  0  0  0
   -2.7458   -4.1167    0.0000 C   0  0  0  0  0  0  0  0  0  0  0  0
   -0.6958   -0.4125    0.0000 C   0  0  0  0  0  0  0  0  0  0  0  0
   -2.0500   -5.3250    0.0000 C   0  0  0  0  0  0  0  0  0  0  0  0
   -2.7500   -4.9250    0.0000 C   0  0  0  0  0  0  0  0  0  0  0  0
  2  3  1  0  0  0  0
  3  1  2  0  0  0  0
  4  5  1  0  0  0  0
  5  7  2  0  0  0  0
  6  1  1  0  0  0  0
  7  1  1  0  0  0  0
  8  4  2  0  0  0  0
  9  2  2  0  0  0  0
 10  6  2  0  0  0  0
 11  3  1  0  0  0  0
 12  8  1  0  0  0  0
 13  9  1  0  0  0  0
 14  6  1  0  0  0  0
 16 20  1  0  0  0  0
 17  8  1  0  0  0  0
 18 11  1  0  0  0  0
 19 12  1  0  0  0  0
 20 18  1  0  0  0  0
 21 17  2  0  0  0  0
 22 21  1  0  0  0  0
  4  2  1  0  0  0  0
 12 13  2  0  0  0  0
 22 19  2  0  0  0  0
M  END
>  <Code> (P7020370015)
P7020370015

>  <Saltdata> (P7020370015)
HCl

>  <Number of H-Donors> (P7020370015)
3

>  <Number of H-Acceptors> (P7020370015)
5

>  <Number of Rotatable bonds> (P7020370015)
4

>  <CLogP> (P7020370015)
2.200000000000000e+000

>  <Number of Rings> (P7020370015)
3

>  <PSA> (P7020370015)
8.250000000000000e+001

$$$$

  -ISIS-  11102212342D

 25 26  0  0  0  0  0  0  0  0999 V2000
   -2.1625   -0.2542    0.0000 N   0  0  0  0  0  0  0  0  0  0  0  0
   -0.4375   -0.2542    0.0000 C   0  0  0  0  0  0  0  0  0  0  0  0
   -1.3000    0.2583    0.0000 C   0  0  0  0  0  0  0  0  0  0  0  0
   -0.4375   -1.2542    0.0000 C   0  0  0  0  0  0  0  0  0  0  0  0
   -2.1625   -1.2542    0.0000 C   0  0  0  0  0  0  0  0  0  0  0  0
   -1.3000   -1.7542    0.0000 N   0  0  0  0  0  0  0  0  0  0  0  0
    0.4375    0.2458    0.0000 C   0  0  0  0  0  0  0  0  0  0  0  0
    1.3000   -0.2542    0.0000 N   0  0  0  0  0  0  0  0  0  0  0  0
    0.4292   -1.7542    0.0000 C   0  0  0  0  0  0  0  0  0  0  0  0
    3.0375   -3.2542    0.0000 C   0  0  3  0  0  0  0  0  0  0  0  0
    2.1667   -2.7667    0.0000 C   0  0  0  0  0  0  0  0  0  0  0  0
   -1.3083    1.2625    0.0000 N   0  0  0  0  0  0  0  0  0  0  0  0
   -3.0375   -1.7542    0.0000 S   0  0  0  0  0  0  0  0  0  0  0  0
    1.3000   -1.2542    0.0000 C   0  0  0  0  0  0  0  0  0  0  0  0
    0.4292   -2.7667    0.0000 C   0  0  0  0  0  0  0  0  0  0  0  0
    1.3000   -3.2542    0.0000 C   0  0  0  0  0  0  0  0  0  0  0  0
    2.1625   -1.7542    0.0000 C   0  0  0  0  0  0  0  0  0  0  0  0
   -2.1708    2.7583    0.0000 C   0  0  0  0  0  0  0  0  0  0  0  0
   -3.0250    4.2542    0.0000 O   0  0  0  0  0  0  0  0  0  0  0  0
   -2.1708    1.7625    0.0000 C   0  0  0  0  0  0  0  0  0  0  0  0
    3.0417   -4.2542    0.0000 C   0  0  0  0  0  0  0  0  0  0  0  0
    3.8917   -2.7542    0.0000 C   0  0  0  0  0  0  0  0  0  0  0  0
    2.3292   -3.9667    0.0000 C   0  0  0  0  0  0  0  0  0  0  0  0
   -3.0250    3.2583    0.0000 C   0  0  0  0  0  0  0  0  0  0  0  0
   -3.9000   -1.2542    0.0000 C   0  0  0  0  0  0  0  0  0  0  0  0
  2  3  1  0  0  0  0
  3  1  2  0  0  0  0
  4  6  1  0  0  0  0
  5  1  1  0  0  0  0
  6  5  2  0  0  0  0
  7  2  1  0  0  0  0
  8  7  3  0  0  0  0
  9  4  1  0  0  0  0
 10 11  1  0  0  0  0
 11 16  2  0  0  0  0
 12  3  1  0  0  0  0
 13  5  1  0  0  0  0
 14  9  1  0  0  0  0
 15  9  2  0  0  0  0
 16 15  1  0  0  0  0
 17 14  2  0  0  0  0
 18 20  1  0  0  0  0
 19 24  1  0  0  0  0
 20 12  1  0  0  0  0
 21 10  1  0  0  0  0
 22 10  1  0  0  0  0
 23 10  1  0  0  0  0
 24 18  1  0  0  0  0
 25 13  1  0  0  0  0
  4  2  2  0  0  0  0
 17 11  1  0  0  0  0
M  END
>  <Code> (P7020160690)
P7020160690

>  <Number of H-Donors> (P7020160690)
2

>  <Number of H-Acceptors> (P7020160690)
6

>  <Number of Rotatable bonds> (P7020160690)
7

>  <CLogP> (P7020160690)
3.700000000000000e+000

>  <Number of Rings> (P7020160690)
2

>  <PSA> (P7020160690)
1.071000000000000e+002

$$$$

  -ISIS-  11102212342D

 24 25  0  0  0  0  0  0  0  0999 V2000
   -2.1583    0.2458    0.0000 N   0  0  0  0  0  0  0  0  0  0  0  0
   -0.4375    0.2458    0.0000 C   0  0  0  0  0  0  0  0  0  0  0  0
   -1.3000    0.7583    0.0000 C   0  0  0  0  0  0  0  0  0  0  0  0
   -0.4375   -0.7542    0.0000 C   0  0  0  0  0  0  0  0  0  0  0  0
   -2.1583   -0.7542    0.0000 C   0  0  0  0  0  0  0  0  0  0  0  0
   -1.3000   -1.2542    0.0000 N   0  0  0  0  0  0  0  0  0  0  0  0
    0.4375    0.7458    0.0000 C   0  0  0  0  0  0  0  0  0  0  0  0
    1.3000    0.2458    0.0000 N   0  0  0  0  0  0  0  0  0  0  0  0
    0.4292   -1.2542    0.0000 C   0  0  0  0  0  0  0  0  0  0  0  0
    3.0375   -2.7542    0.0000 C   0  0  3  0  0  0  0  0  0  0  0  0
    2.1667   -2.2667    0.0000 C   0  0  0  0  0  0  0  0  0  0  0  0
   -1.3083    1.7625    0.0000 N   0  0  0  0  0  0  0  0  0  0  0  0
   -3.0375   -1.2542    0.0000 S   0  0  0  0  0  0  0  0  0  0  0  0
    0.4292   -2.2667    0.0000 C   0  0  0  0  0  0  0  0  0  0  0  0
    1.3000   -0.7542    0.0000 C   0  0  0  0  0  0  0  0  0  0  0  0
    2.1625   -1.2542    0.0000 C   0  0  0  0  0  0  0  0  0  0  0  0
    1.3000   -2.7667    0.0000 C   0  0  0  0  0  0  0  0  0  0  0  0
   -3.0250    3.7583    0.0000 O   0  0  0  0  0  0  0  0  0  0  0  0
    3.0417   -3.7542    0.0000 C   0  0  0  0  0  0  0  0  0  0  0  0
    3.8917   -2.2542    0.0000 C   0  0  0  0  0  0  0  0  0  0  0  0
    2.3292   -3.4667    0.0000 C   0  0  0  0  0  0  0  0  0  0  0  0
   -2.1708    2.2708    0.0000 C   0  0  0  0  0  0  0  0  0  0  0  0
   -3.8958   -0.7542    0.0000 C   0  0  0  0  0  0  0  0  0  0  0  0
   -2.1708    3.2583    0.0000 C   0  0  0  0  0  0  0  0  0  0  0  0
  2  3  1  0  0  0  0
  3  1  2  0  0  0  0
  4  6  1  0  0  0  0
  5  1  1  0  0  0  0
  6  5  2  0  0  0  0
  7  2  1  0  0  0  0
  8  7  3  0  0  0  0
  9  4  1  0  0  0  0
 10 11  1  0  0  0  0
 11 16  1  0  0  0  0
 12  3  1  0  0  0  0
 13  5  1  0  0  0  0
 14  9  2  0  0  0  0
 15  9  1  0  0  0  0
 16 15  2  0  0  0  0
 17 14  1  0  0  0  0
 18 24  1  0  0  0  0
 19 10  1  0  0  0  0
 20 10  1  0  0  0  0
 21 10  1  0  0  0  0
 22 12  1  0  0  0  0
 23 13  1  0  0  0  0
 24 22  1  0  0  0  0
  4  2  2  0  0  0  0
 11 17  2  0  0  0  0
M  END
>  <Code> (P7020160689)
P7020160689

>  <Number of H-Donors> (P7020160689)
2

>  <Number of H-Acceptors> (P7020160689)
6

>  <Number of Rotatable bonds> (P7020160689)
6

>  <CLogP> (P7020160689)
3.700000000000000e+000

>  <Number of Rings> (P7020160689)
2

>  <PSA> (P7020160689)
1.071000000000000e+002

$$$$

  -ISIS-  11102212342D

 26 30  0  0  0  0  0  0  0  0999 V2000
    2.4042   -0.6292    0.0000 N   0  0  3  0  0  0  0  0  0  0  0  0
    1.4125   -0.5042    0.0000 C   0  0  0  0  0  0  0  0  0  0  0  0
    2.6000   -1.6167    0.0000 C   0  0  0  0  0  0  0  0  0  0  0  0
    0.9875   -1.4042    0.0000 N   0  0  0  0  0  0  0  0  0  0  0  0
    1.7167   -2.1042    0.0000 N   0  0  0  0  0  0  0  0  0  0  0  0
   -1.5583    1.2625    0.0000 C   0  0  0  0  0  0  0  0  0  0  0  0
   -2.2208    2.0208    0.0000 O   0  0  0  0  0  0  0  0  0  0  0  0
    3.1625    0.0250    0.0000 C   0  0  0  0  0  0  0  0  0  0  0  0
   -2.0708    0.4000    0.0000 C   0  0  0  0  0  0  0  0  0  0  0  0
   -0.5625    1.2583    0.0000 C   0  0  0  0  0  0  0  0  0  0  0  0
    3.5292   -1.9417    0.0000 C   0  0  0  0  0  0  0  0  0  0  0  0
    0.9250    0.3625    0.0000 S   0  0  0  0  0  0  0  0  0  0  0  0
   -3.1458    1.6125    0.0000 C   0  0  0  0  0  0  0  0  0  0  0  0
    4.2917   -1.2792    0.0000 C   0  0  0  0  0  0  0  0  0  0  0  0
   -3.0375    0.6208    0.0000 C   0  0  0  0  0  0  0  0  0  0  0  0
    4.1042   -0.3042    0.0000 C   0  0  0  0  0  0  0  0  0  0  0  0
   -0.0708    0.3750    0.0000 C   0  0  0  0  0  0  0  0  0  0  0  0
   -0.0583    2.1083    0.0000 O   0  0  0  0  0  0  0  0  0  0  0  0
    2.9750    1.0083    0.0000 C   0  0  0  0  0  0  0  0  0  0  0  0
   -4.0583    2.0250    0.0000 C   0  0  0  0  0  0  0  0  0  0  0  0
   -3.8500    0.0333    0.0000 C   0  0  0  0  0  0  0  0  0  0  0  0
    4.8542    0.3500    0.0000 C   0  0  0  0  0  0  0  0  0  0  0  0
    3.7375    1.6625    0.0000 C   0  0  0  0  0  0  0  0  0  0  0  0
   -4.8625    1.4375    0.0000 C   0  0  0  0  0  0  0  0  0  0  0  0
   -4.7708    0.4458    0.0000 C   0  0  0  0  0  0  0  0  0  0  0  0
    4.6667    1.3375    0.0000 C   0  0  0  0  0  0  0  0  0  0  0  0
  2  1  1  0  0  0  0
  3  1  1  0  0  0  0
  4  2  2  0  0  0  0
  5  3  2  0  0  0  0
  6 10  1  0  0  0  0
  7  6  1  0  0  0  0
  8  1  1  0  0  0  0
  9  6  2  0  0  0  0
 10 17  1  0  0  0  0
 11  3  1  0  0  0  0
 12  2  1  0  0  0  0
 13  7  1  0  0  0  0
 14 16  1  0  0  0  0
 15  9  1  0  0  0  0
 16  8  2  0  0  0  0
 17 12  1  0  0  0  0
 18 10  2  0  0  0  0
 19  8  1  0  0  0  0
 20 13  1  0  0  0  0
 21 15  1  0  0  0  0
 22 16  1  0  0  0  0
 23 19  2  0  0  0  0
 24 20  2  0  0  0  0
 25 21  2  0  0  0  0
 26 23  1  0  0  0  0
  5  4  1  0  0  0  0
 14 11  2  0  0  0  0
 26 22  2  0  0  0  0
 13 15  2  0  0  0  0
 25 24  1  0  0  0  0
M  END
>  <Code> (P7020141026)
P7020141026

>  <Number of H-Donors> (P7020141026)
0

>  <Number of H-Acceptors> (P7020141026)
4

>  <Number of Rotatable bonds> (P7020141026)
4

>  <CLogP> (P7020141026)
4.900000000000000e+000

>  <Number of Rings> (P7020141026)
5

>  <PSA> (P7020141026)
8.570000000000000e+001

$$$$

  -ISIS-  11102212342D

 26 29  0  0  0  0  0  0  0  0999 V2000
    1.2375   -0.8667    0.0000 N   0  0  3  0  0  0  0  0  0  0  0  0
    2.1792   -1.1750    0.0000 C   0  0  0  0  0  0  0  0  0  0  0  0
    0.6542   -1.6792    0.0000 C   0  0  0  0  0  0  0  0  0  0  0  0
    2.9167   -0.5042    0.0000 C   0  0  0  0  0  0  0  0  0  0  0  0
    2.1875   -2.1667    0.0000 N   0  0  0  0  0  0  0  0  0  0  0  0
    1.2500   -2.4792    0.0000 N   0  0  0  0  0  0  0  0  0  0  0  0
    1.0292    0.1083    0.0000 C   0  0  0  0  0  0  0  0  0  0  0  0
    1.7667    0.7708    0.0000 N   0  0  0  0  0  0  0  0  0  0  0  0
    2.7167    0.4708    0.0000 C   0  0  0  0  0  0  0  0  0  0  0  0
   -0.3458   -1.6792    0.0000 S   0  0  0  0  0  0  0  0  0  0  0  0
   -1.8500   -0.8125    0.0000 C   0  0  0  0  0  0  0  0  0  0  0  0
   -2.3458    0.0583    0.0000 N   0  0  0  0  0  0  0  0  0  0  0  0
    3.6417    0.8375    0.0000 C   0  0  0  0  0  0  0  0  0  0  0  0
   -2.3500   -1.6792    0.0000 O   0  0  0  0  0  0  0  0  0  0  0  0
   -0.8458   -0.8167    0.0000 C   0  0  0  0  0  0  0  0  0  0  0  0
   -3.3458    0.0625    0.0000 C   0  0  0  0  0  0  0  0  0  0  0  0
    4.5917    0.5333    0.0000 C   0  0  0  0  0  0  0  0  0  0  0  0
    3.4292    1.8208    0.0000 C   0  0  0  0  0  0  0  0  0  0  0  0
   -3.8500    0.9333    0.0000 C   0  0  0  0  0  0  0  0  0  0  0  0
   -3.8500   -0.8042    0.0000 C   0  0  0  0  0  0  0  0  0  0  0  0
    5.3417    1.1958    0.0000 C   0  0  0  0  0  0  0  0  0  0  0  0
    4.1792    2.4875    0.0000 C   0  0  0  0  0  0  0  0  0  0  0  0
   -4.8583    0.9333    0.0000 C   0  0  0  0  0  0  0  0  0  0  0  0
   -4.8583   -0.8042    0.0000 C   0  0  0  0  0  0  0  0  0  0  0  0
   -5.3458    0.0625    0.0000 C   0  0  0  0  0  0  0  0  0  0  0  0
    5.1250    2.1875    0.0000 C   0  0  0  0  0  0  0  0  0  0  0  0
  2  1  1  0  0  0  0
  3  1  1  0  0  0  0
  4  2  1  0  0  0  0
  5  2  2  0  0  0  0
  6  3  2  0  0  0  0
  7  1  1  0  0  0  0
  8  7  2  0  0  0  0
  9  8  1  0  0  0  0
 10  3  1  0  0  0  0
 11 15  1  0  0  0  0
 12 11  1  0  0  0  0
 13  9  1  0  0  0  0
 14 11  2  0  0  0  0
 15 10  1  0  0  0  0
 16 12  1  0  0  0  0
 17 13  2  0  0  0  0
 18 13  1  0  0  0  0
 19 16  2  0  0  0  0
 20 16  1  0  0  0  0
 21 17  1  0  0  0  0
 22 18  2  0  0  0  0
 23 19  1  0  0  0  0
 24 20  2  0  0  0  0
 25 24  1  0  0  0  0
 26 22  1  0  0  0  0
  6  5  1  0  0  0  0
  4  9  2  0  0  0  0
 21 26  2  0  0  0  0
 23 25  2  0  0  0  0
M  END
>  <Code> (P7020140886)
P7020140886

>  <Number of H-Donors> (P7020140886)
1

>  <Number of H-Acceptors> (P7020140886)
5

>  <Number of Rotatable bonds> (P7020140886)
5

>  <CLogP> (P7020140886)
3.600000000000000e+000

>  <Number of Rings> (P7020140886)
4

>  <PSA> (P7020140886)
9.750000000000000e+001

$$$$

  -ISIS-  11102212342D

 18 19  0  0  0  0  0  0  0  0999 V2000
    3.1750   -0.9667    0.0000 N   0  0  0  0  0  0  0  0  0  0  0  0
    3.1792   -1.7917    0.0000 C   0  0  0  0  0  0  0  0  0  0  0  0
    2.4542   -0.5542    0.0000 C   0  0  0  0  0  0  0  0  0  0  0  0
    2.4667   -2.2125    0.0000 N   0  0  0  0  0  0  0  0  0  0  0  0
    1.7500   -0.9750    0.0000 C   0  0  0  0  0  0  0  0  0  0  0  0
    1.7500   -1.8000    0.0000 C   0  0  0  0  0  0  0  0  0  0  0  0
    3.9000   -2.2042    0.0000 C   0  0  0  0  0  0  0  0  0  0  0  0
    4.6125   -1.7917    0.0000 O   0  0  0  0  0  0  0  0  0  0  0  0
    2.4542    0.2708    0.0000 N   0  0  0  0  0  0  0  0  0  0  0  0
    3.9000   -3.0292    0.0000 O   0  0  0  0  0  0  0  0  0  0  0  0
    1.0292   -0.5625    0.0000 C   0  0  0  0  0  0  0  0  0  0  0  0
    3.8792    0.2708    0.0000 C   0  0  0  0  0  0  0  0  0  0  0  0
    4.5917    1.5083    0.0000 O   0  0  0  0  0  0  0  0  0  0  0  0
    1.0292   -2.2167    0.0000 C   0  0  0  0  0  0  0  0  0  0  0  0
    3.1667    0.6833    0.0000 C   0  0  0  0  0  0  0  0  0  0  0  0
    4.5917    0.6833    0.0000 C   0  0  0  0  0  0  0  0  0  0  0  0
    0.3167   -0.9750    0.0000 C   0  0  0  0  0  0  0  0  0  0  0  0
    0.3167   -1.8042    0.0000 C   0  0  0  0  0  0  0  0  0  0  0  0
  2  1  1  0  0  0  0
  3  1  2  0  0  0  0
  4  2  2  0  0  0  0
  5  3  1  0  0  0  0
  6  5  1  0  0  0  0
  7  2  1  0  0  0  0
  8  7  2  0  0  0  0
  9  3  1  0  0  0  0
 10  7  1  0  0  0  0
 11  5  2  0  0  0  0
 12 15  1  0  0  0  0
 13 16  1  0  0  0  0
 14  6  2  0  0  0  0
 15  9  1  0  0  0  0
 16 12  1  0  0  0  0
 17 11  1  0  0  0  0
 18 17  2  0  0  0  0
  6  4  1  0  0  0  0
 18 14  1  0  0  0  0
M  END
>  <Code> (P7019081259)
P7019081259

>  <Number of H-Donors> (P7019081259)
3

>  <Number of H-Acceptors> (P7019081259)
6

>  <Number of Rotatable bonds> (P7019081259)
5

>  <CLogP> (P7019081259)
5.000000000000000e-001

>  <Number of Rings> (P7019081259)
2

>  <PSA> (P7019081259)
9.530000000000000e+001

$$$$

  -ISIS-  11102212342D

 20 22  0  0  0  0  0  0  0  0999 V2000
    2.5167   -1.3667    0.0000 C   0  0  0  0  0  0  0  0  0  0  0  0
    3.2292   -1.7792    0.0000 N   0  0  0  0  0  0  0  0  0  0  0  0
    3.2375   -2.6042    0.0000 C   0  0  0  0  0  0  0  0  0  0  0  0
    2.5250   -3.0250    0.0000 N   0  0  0  0  0  0  0  0  0  0  0  0
    1.8042   -1.7875    0.0000 C   0  0  0  0  0  0  0  0  0  0  0  0
    1.8042   -2.6125    0.0000 C   0  0  0  0  0  0  0  0  0  0  0  0
    3.9542   -3.0167    0.0000 C   0  0  0  0  0  0  0  0  0  0  0  0
    2.5042   -0.5417    0.0000 N   0  0  0  0  0  0  0  0  0  0  0  0
    4.6667   -2.6042    0.0000 O   0  0  0  0  0  0  0  0  0  0  0  0
    3.9542   -3.8417    0.0000 O   0  0  0  0  0  0  0  0  0  0  0  0
    3.2250   -0.1292    0.0000 C   0  0  3  0  0  0  0  0  0  0  0  0
    1.0917   -1.3750    0.0000 C   0  0  0  0  0  0  0  0  0  0  0  0
    1.0917   -3.0292    0.0000 C   0  0  0  0  0  0  0  0  0  0  0  0
    3.9417   -0.5417    0.0000 C   0  0  0  0  0  0  0  0  0  0  0  0
    3.2167    0.6958    0.0000 C   0  0  0  0  0  0  0  0  0  0  0  0
    0.3792   -1.7875    0.0000 C   0  0  0  0  0  0  0  0  0  0  0  0
    0.3792   -2.6167    0.0000 C   0  0  0  0  0  0  0  0  0  0  0  0
    3.9292    1.1083    0.0000 C   0  0  0  0  0  0  0  0  0  0  0  0
    4.6500   -0.1292    0.0000 C   0  0  0  0  0  0  0  0  0  0  0  0
    4.6500    0.6958    0.0000 C   0  0  0  0  0  0  0  0  0  0  0  0
  2  1  2  0  0  0  0
  3  2  1  0  0  0  0
  4  6  1  0  0  0  0
  5  1  1  0  0  0  0
  6  5  1  0  0  0  0
  7  3  1  0  0  0  0
  8  1  1  0  0  0  0
  9  7  2  0  0  0  0
 10  7  1  0  0  0  0
 11  8  1  0  0  0  0
 12  5  2  0  0  0  0
 13  6  2  0  0  0  0
 14 11  1  0  0  0  0
 15 11  1  0  0  0  0
 16 12  1  0  0  0  0
 17 16  2  0  0  0  0
 18 15  1  0  0  0  0
 19 14  1  0  0  0  0
 20 18  1  0  0  0  0
  4  3  2  0  0  0  0
 17 13  1  0  0  0  0
 19 20  1  0  0  0  0
M  END
>  <Code> (P7019081257)
P7019081257

>  <Number of H-Donors> (P7019081257)
2

>  <Number of H-Acceptors> (P7019081257)
5

>  <Number of Rotatable bonds> (P7019081257)
3

>  <CLogP> (P7019081257)
2.900000000000000e+000

>  <Number of Rings> (P7019081257)
3

>  <PSA> (P7019081257)
7.509999999999999e+001

$$$$

  -ISIS-  11102212342D

 20 21  0  0  0  0  0  0  0  0999 V2000
    5.5875   -4.6542    0.0000 C   0  0  0  0  0  0  0  0  0  0  0  0
    4.4792   -5.2875    0.0000 C   0  0  0  0  0  0  0  0  0  0  0  0
    4.4792   -6.5792    0.0000 C   0  0  0  0  0  0  0  0  0  0  0  0
    6.7042   -5.2792    0.0000 N   0  0  0  0  0  0  0  0  0  0  0  0
    1.1167   -7.2292    0.0000 C   0  0  0  0  0  0  0  0  0  0  0  0
    5.5875   -3.3542    0.0000 N   0  0  0  0  0  0  0  0  0  0  0  0
    2.2542   -6.5917    0.0000 C   0  0  0  0  0  0  0  0  0  0  0  0
    3.3542   -4.6625    0.0000 C   0  0  0  0  0  0  0  0  0  0  0  0
    3.3542   -7.2292    0.0000 C   0  0  0  0  0  0  0  0  0  0  0  0
    5.6042   -7.2167    0.0000 N   0  0  0  0  0  0  0  0  0  0  0  0
    6.7167   -6.5792    0.0000 C   0  0  0  0  0  0  0  0  0  0  0  0
    2.2542   -5.3042    0.0000 C   0  0  0  0  0  0  0  0  0  0  0  0
    1.1167   -8.5375    0.0000 O   0  0  0  0  0  0  0  0  0  0  0  0
    0.0000   -6.5917    0.0000 O   0  0  0  0  0  0  0  0  0  0  0  0
    6.4375   -2.2042    0.0000 C   0  0  3  0  0  0  0  0  0  0  0  0
    9.0542   -2.9042    0.0000 Cl  0  0  0  0  0  0  0  0  0  0  0  0
    7.8542   -2.2042    0.0000 C   0  0  0  0  0  0  0  0  0  0  0  0
    6.0000   -0.8500    0.0000 C   0  0  0  0  0  0  0  0  0  0  0  0
    7.1417   -0.0000    0.0000 C   0  0  0  0  0  0  0  0  0  0  0  0
    8.3125   -0.8500    0.0000 C   0  0  0  0  0  0  0  0  0  0  0  0
  2  1  1  0  0  0  0
  3  2  1  0  0  0  0
  4  1  2  0  0  0  0
  5  7  1  0  0  0  0
  6  1  1  0  0  0  0
  7 12  2  0  0  0  0
  8  2  2  0  0  0  0
  9  3  2  0  0  0  0
 10 11  2  0  0  0  0
 11  4  1  0  0  0  0
 12  8  1  0  0  0  0
 13  5  2  0  0  0  0
 14  5  1  0  0  0  0
 15  6  1  0  0  0  0
 17 15  1  0  0  0  0
 18 15  1  0  0  0  0
 19 18  1  0  0  0  0
 20 17  1  0  0  0  0
  3 10  1  0  0  0  0
  7  9  1  0  0  0  0
 20 19  1  0  0  0  0
M  END
>  <Code> (P7019080356)
P7019080356

>  <Saltdata> (P7019080356)
HCl

>  <Number of H-Donors> (P7019080356)
2

>  <Number of H-Acceptors> (P7019080356)
5

>  <Number of Rotatable bonds> (P7019080356)
3

>  <CLogP> (P7019080356)
2.700000000000000e+000

>  <Number of Rings> (P7019080356)
3

>  <PSA> (P7019080356)
7.509999999999999e+001

$$$$

  -ISIS-  11102212342D

 22 25  0  0  0  0  0  0  0  0999 V2000
   -2.5625    0.5958    0.0000 C   0  0  0  0  0  0  0  0  0  0  0  0
   -1.5958    0.9125    0.0000 N   0  0  0  0  0  0  0  0  0  0  0  0
   -2.5625   -0.4500    0.0000 N   0  0  3  0  0  0  0  0  0  0  0  0
   -0.9833    0.0708    0.0000 C   0  0  0  0  0  0  0  0  0  0  0  0
   -1.5958   -0.7667    0.0000 C   0  0  0  0  0  0  0  0  0  0  0  0
   -3.4500    1.0958    0.0000 C   0  0  0  0  0  0  0  0  0  0  0  0
   -3.4500   -0.9667    0.0000 C   0  0  0  0  0  0  0  0  0  0  0  0
   -4.3500    0.5958    0.0000 C   0  0  0  0  0  0  0  0  0  0  0  0
   -4.3500   -0.4500    0.0000 C   0  0  0  0  0  0  0  0  0  0  0  0
    0.0667   -0.0000    0.0000 C   0  0  0  0  0  0  0  0  0  0  0  0
    2.1292   -0.0917    0.0000 C   0  0  0  0  0  0  0  0  0  0  0  0
    0.6292    0.8833    0.0000 C   0  0  0  0  0  0  0  0  0  0  0  0
    0.5375   -0.9042    0.0000 C   0  0  0  0  0  0  0  0  0  0  0  0
    1.6667    0.8208    0.0000 C   0  0  0  0  0  0  0  0  0  0  0  0
    1.5792   -0.9667    0.0000 C   0  0  0  0  0  0  0  0  0  0  0  0
    3.1667   -0.1375    0.0000 C   0  0  0  0  0  0  0  0  0  0  0  0
   -5.2708    1.1125    0.0000 C   0  0  0  0  0  0  0  0  0  0  0  0
    3.6500   -1.0542    0.0000 C   0  0  0  0  0  0  0  0  0  0  0  0
    3.7167    0.7208    0.0000 C   0  0  0  0  0  0  0  0  0  0  0  0
    4.7667    0.6833    0.0000 C   0  0  0  0  0  0  0  0  0  0  0  0
    4.6792   -1.1042    0.0000 C   0  0  0  0  0  0  0  0  0  0  0  0
    5.2375   -0.2375    0.0000 C   0  0  0  0  0  0  0  0  0  0  0  0
  2  1  2  0  0  0  0
  3  1  1  0  0  0  0
  4  2  1  0  0  0  0
  5  3  1  0  0  0  0
  6  1  1  0  0  0  0
  7  3  1  0  0  0  0
  8  6  2  0  0  0  0
  9  8  1  0  0  0  0
 10  4  1  0  0  0  0
 11 15  1  0  0  0  0
 12 10  2  0  0  0  0
 13 10  1  0  0  0  0
 14 12  1  0  0  0  0
 15 13  2  0  0  0  0
 16 11  1  0  0  0  0
 17  8  1  0  0  0  0
 18 16  2  0  0  0  0
 19 16  1  0  0  0  0
 20 19  2  0  0  0  0
 21 18  1  0  0  0  0
 22 20  1  0  0  0  0
  4  5  2  0  0  0  0
  9  7  2  0  0  0  0
 14 11  2  0  0  0  0
 22 21  2  0  0  0  0
M  END
>  <Code> (P7018850983)
P7018850983

>  <Number of H-Donors> (P7018850983)
0

>  <Number of H-Acceptors> (P7018850983)
1

>  <Number of Rotatable bonds> (P7018850983)
2

>  <CLogP> (P7018850983)
4.500000000000000e+000

>  <Number of Rings> (P7018850983)
4

>  <PSA> (P7018850983)
1.730000000000000e+001

$$$$

  -ISIS-  11102212342D

 20 21  0  0  0  0  0  0  0  0999 V2000
   -2.9958   -0.3542    0.0000 N   0  0  0  0  0  0  0  0  0  0  0  0
   -3.5375   -1.2000    0.0000 C   0  0  0  0  0  0  0  0  0  0  0  0
   -1.9958   -0.3917    0.0000 C   0  0  0  0  0  0  0  0  0  0  0  0
   -2.0708   -2.1292    0.0000 N   0  0  0  0  0  0  0  0  0  0  0  0
   -3.0833   -2.0792    0.0000 N   0  0  0  0  0  0  0  0  0  0  0  0
    1.0917    1.1958    0.0000 N   0  0  0  0  0  0  0  0  0  0  0  0
    0.0875    1.2458    0.0000 C   0  0  0  0  0  0  0  0  0  0  0  0
   -1.5375   -1.2792    0.0000 C   0  0  0  0  0  0  0  0  0  0  0  0
    1.5417    0.3125    0.0000 C   0  0  3  0  0  0  0  0  0  0  0  0
   -1.4625    0.4583    0.0000 S   0  0  0  0  0  0  0  0  0  0  0  0
   -0.3708    2.1333    0.0000 O   0  0  0  0  0  0  0  0  0  0  0  0
    2.5417    0.2708    0.0000 C   0  0  0  0  0  0  0  0  0  0  0  0
   -0.4583    0.4000    0.0000 C   0  0  0  0  0  0  0  0  0  0  0  0
   -4.5375   -1.1542    0.0000 O   0  0  0  0  0  0  0  0  0  0  0  0
    1.0042   -0.5417    0.0000 C   0  0  0  0  0  0  0  0  0  0  0  0
    3.0667    1.1083    0.0000 C   0  0  0  0  0  0  0  0  0  0  0  0
    3.0042   -0.6125    0.0000 C   0  0  0  0  0  0  0  0  0  0  0  0
    3.9875   -0.6625    0.0000 C   0  0  0  0  0  0  0  0  0  0  0  0
    4.0625    1.0708    0.0000 C   0  0  0  0  0  0  0  0  0  0  0  0
    4.5292    0.1958    0.0000 C   0  0  0  0  0  0  0  0  0  0  0  0
  2  1  1  0  0  0  0
  3  1  2  0  0  0  0
  4  8  2  0  0  0  0
  5  2  2  0  0  0  0
  6  7  1  0  0  0  0
  7 13  1  0  0  0  0
  8  3  1  0  0  0  0
  9  6  1  0  0  0  0
 10  3  1  0  0  0  0
 11  7  2  0  0  0  0
 12  9  1  0  0  0  0
 13 10  1  0  0  0  0
 14  2  1  0  0  0  0
 15  9  1  0  0  0  0
 16 12  1  0  0  0  0
 17 12  2  0  0  0  0
 18 17  1  0  0  0  0
 19 16  2  0  0  0  0
 20 18  2  0  0  0  0
  4  5  1  0  0  0  0
 19 20  1  0  0  0  0
M  END
>  <Code> (P7018810807)
P7018810807

>  <Number of H-Donors> (P7018810807)
2

>  <Number of H-Acceptors> (P7018810807)
6

>  <Number of Rotatable bonds> (P7018810807)
5

>  <CLogP> (P7018810807)
2.000000000000000e+000

>  <Number of Rings> (P7018810807)
2

>  <PSA> (P7018810807)
1.133000000000000e+002

$$$$

  -ISIS-  11102212342D

 20 21  0  0  0  0  0  0  0  0999 V2000
   -2.2583   -0.1917    0.0000 N   0  0  0  0  0  0  0  0  0  0  0  0
   -2.7083   -0.8875    0.0000 C   0  0  0  0  0  0  0  0  0  0  0  0
   -1.4333   -0.2292    0.0000 C   0  0  0  0  0  0  0  0  0  0  0  0
   -1.4958   -1.6542    0.0000 N   0  0  0  0  0  0  0  0  0  0  0  0
   -2.3250   -1.6292    0.0000 N   0  0  0  0  0  0  0  0  0  0  0  0
    0.2792    1.1208    0.0000 C   0  0  0  0  0  0  0  0  0  0  0  0
    1.1042    1.0875    0.0000 N   0  0  0  0  0  0  0  0  0  0  0  0
    2.6792   -0.4125    0.0000 C   0  0  0  0  0  0  0  0  0  0  0  0
   -1.0583   -0.9625    0.0000 C   0  0  0  0  0  0  0  0  0  0  0  0
    1.4875    0.3500    0.0000 C   0  0  0  0  0  0  0  0  0  0  0  0
    2.3042    0.3208    0.0000 C   0  0  0  0  0  0  0  0  0  0  0  0
   -0.9958    0.4708    0.0000 S   0  0  0  0  0  0  0  0  0  0  0  0
    2.2417   -1.1125    0.0000 C   0  0  0  0  0  0  0  0  0  0  0  0
   -0.0958    1.8583    0.0000 O   0  0  0  0  0  0  0  0  0  0  0  0
    1.4167   -1.0750    0.0000 C   0  0  0  0  0  0  0  0  0  0  0  0
   -0.1625    0.4208    0.0000 C   0  0  0  0  0  0  0  0  0  0  0  0
   -3.5333   -0.8542    0.0000 O   0  0  0  0  0  0  0  0  0  0  0  0
    1.0417   -0.3417    0.0000 C   0  0  0  0  0  0  0  0  0  0  0  0
    3.5167   -0.4417    0.0000 C   0  0  0  0  0  0  0  0  0  0  0  0
    2.6167   -1.8417    0.0000 C   0  0  0  0  0  0  0  0  0  0  0  0
  2  1  1  0  0  0  0
  3  1  2  0  0  0  0
  4  9  2  0  0  0  0
  5  2  2  0  0  0  0
  6 16  1  0  0  0  0
  7  6  1  0  0  0  0
  8 11  2  0  0  0  0
  9  3  1  0  0  0  0
 10  7  1  0  0  0  0
 11 10  1  0  0  0  0
 12  3  1  0  0  0  0
 13 15  2  0  0  0  0
 14  6  2  0  0  0  0
 15 18  1  0  0  0  0
 16 12  1  0  0  0  0
 17  2  1  0  0  0  0
 18 10  2  0  0  0  0
 19  8  1  0  0  0  0
 20 13  1  0  0  0  0
  5  4  1  0  0  0  0
 13  8  1  0  0  0  0
M  END
>  <Code> (P7018810761)
P7018810761

>  <Number of H-Donors> (P7018810761)
2

>  <Number of H-Acceptors> (P7018810761)
6

>  <Number of Rotatable bonds> (P7018810761)
4

>  <CLogP> (P7018810761)
2.600000000000000e+000

>  <Number of Rings> (P7018810761)
2

>  <PSA> (P7018810761)
1.133000000000000e+002

$$$$

  -ISIS-  11102212342D

 24 25  0  0  0  0  0  0  0  0999 V2000
   -2.2833    0.1375    0.0000 N   0  0  0  0  0  0  0  0  0  0  0  0
   -1.2708    0.1000    0.0000 C   0  0  0  0  0  0  0  0  0  0  0  0
    1.7875   -1.7542    0.0000 C   0  0  3  0  0  0  0  0  0  0  0  0
   -2.8208   -0.7042    0.0000 C   0  0  0  0  0  0  0  0  0  0  0  0
   -1.3583   -1.6417    0.0000 N   0  0  0  0  0  0  0  0  0  0  0  0
   -0.8125   -0.7917    0.0000 C   0  0  0  0  0  0  0  0  0  0  0  0
   -2.3583   -1.5917    0.0000 N   0  0  0  0  0  0  0  0  0  0  0  0
    2.3042    0.8375    0.0000 C   0  0  0  0  0  0  0  0  0  0  0  0
    2.3042   -0.8917    0.0000 C   0  0  0  0  0  0  0  0  0  0  0  0
    1.8167    1.6958    0.0000 N   0  0  0  0  0  0  0  0  0  0  0  0
    1.8042   -0.0292    0.0000 C   0  0  0  0  0  0  0  0  0  0  0  0
   -0.7333    0.9458    0.0000 S   0  0  0  0  0  0  0  0  0  0  0  0
    0.8125    1.7375    0.0000 C   0  0  0  0  0  0  0  0  0  0  0  0
    3.2917    0.8375    0.0000 C   0  0  0  0  0  0  0  0  0  0  0  0
    3.2917   -0.8917    0.0000 C   0  0  0  0  0  0  0  0  0  0  0  0
    0.3417    2.6333    0.0000 O   0  0  0  0  0  0  0  0  0  0  0  0
    3.7917   -0.0292    0.0000 C   0  0  0  0  0  0  0  0  0  0  0  0
    0.7875   -1.7542    0.0000 F   0  0  0  0  0  0  0  0  0  0  0  0
    2.2917   -2.6250    0.0000 F   0  0  0  0  0  0  0  0  0  0  0  0
    1.0917   -1.0500    0.0000 F   0  0  0  0  0  0  0  0  0  0  0  0
    0.2750    0.8958    0.0000 C   0  0  0  0  0  0  0  0  0  0  0  0
   -3.8125   -0.6625    0.0000 O   0  0  0  0  0  0  0  0  0  0  0  0
    3.8042    1.6958    0.0000 Cl  0  0  0  0  0  0  0  0  0  0  0  0
    0.1792   -0.8292    0.0000 C   0  0  0  0  0  0  0  0  0  0  0  0
  2  1  2  0  0  0  0
  3  9  1  0  0  0  0
  4  1  1  0  0  0  0
  5  7  1  0  0  0  0
  6  2  1  0  0  0  0
  7  4  2  0  0  0  0
  8 10  1  0  0  0  0
  9 11  1  0  0  0  0
 10 13  1  0  0  0  0
 11  8  2  0  0  0  0
 12  2  1  0  0  0  0
 13 21  1  0  0  0  0
 14  8  1  0  0  0  0
 15 17  1  0  0  0  0
 16 13  2  0  0  0  0
 17 14  2  0  0  0  0
 18  3  1  0  0  0  0
 19  3  1  0  0  0  0
 20  3  1  0  0  0  0
 21 12  1  0  0  0  0
 22  4  1  0  0  0  0
 23 14  1  0  0  0  0
 24  6  1  0  0  0  0
  5  6  2  0  0  0  0
  9 15  2  0  0  0  0
M  END
>  <Code> (P7018810579)
P7018810579

>  <Number of H-Donors> (P7018810579)
2

>  <Number of H-Acceptors> (P7018810579)
6

>  <Number of Rotatable bonds> (P7018810579)
5

>  <CLogP> (P7018810579)
3.500000000000000e+000

>  <Number of Rings> (P7018810579)
2

>  <PSA> (P7018810579)
1.133000000000000e+002

$$$$

  -ISIS-  11102212342D

 19 20  0  0  0  0  0  0  0  0999 V2000
    3.2292   -0.6667    0.0000 N   0  0  0  0  0  0  0  0  0  0  0  0
    4.0667   -0.7000    0.0000 C   0  0  0  0  0  0  0  0  0  0  0  0
    2.7792   -1.3667    0.0000 C   0  0  0  0  0  0  0  0  0  0  0  0
    3.9917   -2.1375    0.0000 N   0  0  0  0  0  0  0  0  0  0  0  0
    4.4417   -1.4292    0.0000 C   0  0  0  0  0  0  0  0  0  0  0  0
    3.1667   -2.1000    0.0000 N   0  0  0  0  0  0  0  0  0  0  0  0
    4.5042   -0.0042    0.0000 S   0  0  0  0  0  0  0  0  0  0  0  0
    5.7875    0.6583    0.0000 C   0  0  0  0  0  0  0  0  0  0  0  0
    7.8125   -0.1542    0.0000 C   0  0  0  0  0  0  0  0  0  0  0  0
    8.2625   -0.8292    0.0000 O   0  0  0  0  0  0  0  0  0  0  0  0
    6.6167    0.6208    0.0000 N   0  0  0  0  0  0  0  0  0  0  0  0
    8.3250    0.5000    0.0000 C   0  0  0  0  0  0  0  0  0  0  0  0
    9.0625   -0.6125    0.0000 C   0  0  0  0  0  0  0  0  0  0  0  0
    9.0917    0.2125    0.0000 C   0  0  0  0  0  0  0  0  0  0  0  0
    5.4000    1.3958    0.0000 O   0  0  0  0  0  0  0  0  0  0  0  0
    5.3375   -0.0417    0.0000 C   0  0  0  0  0  0  0  0  0  0  0  0
    6.9917   -0.1167    0.0000 C   0  0  0  0  0  0  0  0  0  0  0  0
    1.9625   -1.3292    0.0000 O   0  0  0  0  0  0  0  0  0  0  0  0
    5.2625   -1.4667    0.0000 C   0  0  0  0  0  0  0  0  0  0  0  0
  2  1  2  0  0  0  0
  3  1  1  0  0  0  0
  4  6  1  0  0  0  0
  5  2  1  0  0  0  0
  6  3  2  0  0  0  0
  7  2  1  0  0  0  0
  8 16  1  0  0  0  0
  9 17  1  0  0  0  0
 10  9  1  0  0  0  0
 11  8  1  0  0  0  0
 12  9  2  0  0  0  0
 13 10  1  0  0  0  0
 14 12  1  0  0  0  0
 15  8  2  0  0  0  0
 16  7  1  0  0  0  0
 17 11  1  0  0  0  0
 18  3  1  0  0  0  0
 19  5  1  0  0  0  0
  4  5  2  0  0  0  0
 14 13  2  0  0  0  0
M  END
>  <Code> (P7018810566)
P7018810566

>  <Number of H-Donors> (P7018810566)
2

>  <Number of H-Acceptors> (P7018810566)
6

>  <Number of Rotatable bonds> (P7018810566)
5

>  <CLogP> (P7018810566)
1.100000000000000e+000

>  <Number of Rings> (P7018810566)
2

>  <PSA> (P7018810566)
1.264000000000000e+002

$$$$

  -ISIS-  11102212342D

 25 26  0  0  0  0  0  0  0  0999 V2000
   -2.6958    0.5833    0.0000 N   0  0  0  0  0  0  0  0  0  0  0  0
   -1.6875    0.5458    0.0000 C   0  0  0  0  0  0  0  0  0  0  0  0
   -3.2333   -0.2625    0.0000 C   0  0  0  0  0  0  0  0  0  0  0  0
   -1.7708   -1.1917    0.0000 N   0  0  0  0  0  0  0  0  0  0  0  0
   -1.2333   -0.3500    0.0000 C   0  0  0  0  0  0  0  0  0  0  0  0
   -2.7708   -1.1417    0.0000 N   0  0  0  0  0  0  0  0  0  0  0  0
    3.2250   -1.4167    0.0000 C   0  0  0  0  0  0  0  0  0  0  0  0
   -1.1500    1.3833    0.0000 S   0  0  0  0  0  0  0  0  0  0  0  0
    0.3875    2.1750    0.0000 C   0  0  0  0  0  0  0  0  0  0  0  0
    2.7542   -0.5292    0.0000 C   0  0  0  0  0  0  0  0  0  0  0  0
    1.3875    2.1250    0.0000 N   0  0  0  0  0  0  0  0  0  0  0  0
    4.2250   -1.4542    0.0000 O   0  0  0  0  0  0  0  0  0  0  0  0
   -0.0750    3.0708    0.0000 O   0  0  0  0  0  0  0  0  0  0  0  0
   -0.1500    1.3375    0.0000 C   0  0  0  0  0  0  0  0  0  0  0  0
    1.7542   -0.4875    0.0000 C   0  0  0  0  0  0  0  0  0  0  0  0
    3.3042    0.3208    0.0000 C   0  0  0  0  0  0  0  0  0  0  0  0
    1.8500    1.2375    0.0000 C   0  0  0  0  0  0  0  0  0  0  0  0
   -4.2333   -0.2167    0.0000 O   0  0  0  0  0  0  0  0  0  0  0  0
    2.6792   -2.2667    0.0000 O   0  0  0  0  0  0  0  0  0  0  0  0
    2.8292    1.2083    0.0000 C   0  0  0  0  0  0  0  0  0  0  0  0
    1.3042    0.4083    0.0000 C   0  0  0  0  0  0  0  0  0  0  0  0
   -0.2458   -0.3875    0.0000 C   0  0  0  0  0  0  0  0  0  0  0  0
    1.6792   -2.2167    0.0000 C   0  0  0  0  0  0  0  0  0  0  0  0
    1.1542   -3.0625    0.0000 C   0  0  0  0  0  0  0  0  0  0  0  0
    0.1542   -3.0167    0.0000 C   0  0  0  0  0  0  0  0  0  0  0  0
  2  1  2  0  0  0  0
  3  1  1  0  0  0  0
  4  6  1  0  0  0  0
  5  2  1  0  0  0  0
  6  3  2  0  0  0  0
  7 10  1  0  0  0  0
  8  2  1  0  0  0  0
  9 14  1  0  0  0  0
 10 15  2  0  0  0  0
 11  9  1  0  0  0  0
 12  7  2  0  0  0  0
 13  9  2  0  0  0  0
 14  8  1  0  0  0  0
 15 21  1  0  0  0  0
 16 20  2  0  0  0  0
 17 11  1  0  0  0  0
 18  3  1  0  0  0  0
 19  7  1  0  0  0  0
 20 17  1  0  0  0  0
 21 17  2  0  0  0  0
 22  5  1  0  0  0  0
 23 19  1  0  0  0  0
 24 23  1  0  0  0  0
 25 24  1  0  0  0  0
  4  5  2  0  0  0  0
 10 16  1  0  0  0  0
M  END
>  <Code> (P7018810551)
P7018810551

>  <Number of H-Donors> (P7018810551)
2

>  <Number of H-Acceptors> (P7018810551)
8

>  <Number of Rotatable bonds> (P7018810551)
8

>  <CLogP> (P7018810551)
2.600000000000000e+000

>  <Number of Rings> (P7018810551)
2

>  <PSA> (P7018810551)
1.396000000000000e+002

$$$$

  -ISIS-  11102212342D

 25 27  0  0  0  0  0  0  0  0999 V2000
    2.5542   -2.6417    0.0000 N   0  0  0  0  0  0  0  0  0  0  0  0
    3.3750   -2.6292    0.0000 C   0  0  0  0  0  0  0  0  0  0  0  0
    2.1292   -1.9292    0.0000 C   0  0  0  0  0  0  0  0  0  0  0  0
    3.7875   -1.9125    0.0000 C   0  0  0  0  0  0  0  0  0  0  0  0
    3.3625   -1.2000    0.0000 N   0  0  0  0  0  0  0  0  0  0  0  0
    2.5375   -1.2125    0.0000 N   0  0  0  0  0  0  0  0  0  0  0  0
    4.6250   -3.3292    0.0000 N   0  0  0  0  0  0  0  0  0  0  0  0
    0.9125   -2.6625    0.0000 N   0  0  0  0  0  0  0  0  0  0  0  0
    3.8000   -3.3375    0.0000 N   0  0  0  0  0  0  0  0  0  0  0  0
    1.3125   -1.9417    0.0000 N   0  0  0  0  0  0  0  0  0  0  0  0
   -1.1125   -4.8292    0.0000 N   0  0  0  0  0  0  0  0  0  0  0  0
    7.5125   -4.0042    0.0000 N   0  0  0  0  0  0  0  0  0  0  0  0
    5.0417   -4.0417    0.0000 C   0  0  0  0  0  0  0  0  0  0  0  0
    0.0917   -2.6750    0.0000 C   0  0  0  0  0  0  0  0  0  0  0  0
    5.8667   -4.0292    0.0000 C   0  0  0  0  0  0  0  0  0  0  0  0
   -0.3083   -3.4000    0.0000 C   0  0  0  0  0  0  0  0  0  0  0  0
    4.6125   -1.9000    0.0000 C   0  0  0  0  0  0  0  0  0  0  0  0
   -1.5333   -4.1250    0.0000 C   0  0  0  0  0  0  0  0  0  0  0  0
    7.1042   -4.7292    0.0000 C   0  0  0  0  0  0  0  0  0  0  0  0
   -0.2875   -4.8250    0.0000 C   0  0  0  0  0  0  0  0  0  0  0  0
    7.0917   -3.3000    0.0000 C   0  0  0  0  0  0  0  0  0  0  0  0
    6.2792   -4.7375    0.0000 C   0  0  0  0  0  0  0  0  0  0  0  0
   -1.1333   -3.4125    0.0000 C   0  0  0  0  0  0  0  0  0  0  0  0
    0.1125   -4.1042    0.0000 C   0  0  0  0  0  0  0  0  0  0  0  0
    6.2667   -3.3125    0.0000 C   0  0  0  0  0  0  0  0  0  0  0  0
  2  1  2  0  0  0  0
  3  1  1  0  0  0  0
  4  2  1  0  0  0  0
  5  6  1  0  0  0  0
  6  3  2  0  0  0  0
  7  9  1  0  0  0  0
  8 10  1  0  0  0  0
  9  2  1  0  0  0  0
 10  3  1  0  0  0  0
 11 20  1  0  0  0  0
 12 21  1  0  0  0  0
 13  7  2  0  0  0  0
 14  8  2  0  0  0  0
 15 13  1  0  0  0  0
 16 14  1  0  0  0  0
 17  4  1  0  0  0  0
 18 23  1  0  0  0  0
 19 22  1  0  0  0  0
 20 24  2  0  0  0  0
 21 25  2  0  0  0  0
 22 15  2  0  0  0  0
 23 16  2  0  0  0  0
 24 16  1  0  0  0  0
 25 15  1  0  0  0  0
  4  5  2  0  0  0  0
 18 11  2  0  0  0  0
 19 12  2  0  0  0  0
M  END
>  <Code> (P7018810424)
P7018810424

>  <Number of H-Donors> (P7018810424)
2

>  <Number of H-Acceptors> (P7018810424)
9

>  <Number of Rotatable bonds> (P7018810424)
6

>  <CLogP> (P7018810424)
6.000000000000000e-001

>  <Number of Rings> (P7018810424)
3

>  <PSA> (P7018810424)
1.132000000000000e+002

$$$$

  -ISIS-  11102212342D

 13 14  0  0  0  0  0  0  0  0999 V2000
   -0.6875    1.6958    0.0000 N   0  0  0  0  0  0  0  0  0  0  0  0
   -0.7000    0.8250    0.0000 C   0  0  0  0  0  0  0  0  0  0  0  0
    0.8250    0.8458    0.0000 N   0  0  0  0  0  0  0  0  0  0  0  0
    0.0500    0.4000    0.0000 N   0  0  0  0  0  0  0  0  0  0  0  0
    0.0875    2.1500    0.0000 C   0  0  0  0  0  0  0  0  0  0  0  0
    0.8250    1.6958    0.0000 C   0  0  0  0  0  0  0  0  0  0  0  0
   -1.4125    0.4250    0.0000 N   0  0  0  0  0  0  0  0  0  0  0  0
    0.0875    3.0000    0.0000 O   0  0  0  0  0  0  0  0  0  0  0  0
   -2.1250    0.8375    0.0000 C   0  0  3  0  0  0  0  0  0  0  0  0
   -2.2125    1.6500    0.0000 C   0  0  0  0  0  0  0  0  0  0  0  0
   -2.8750    0.5000    0.0000 C   0  0  0  0  0  0  0  0  0  0  0  0
   -3.4333    1.1083    0.0000 C   0  0  0  0  0  0  0  0  0  0  0  0
   -3.0250    1.8208    0.0000 C   0  0  0  0  0  0  0  0  0  0  0  0
  2  1  1  0  0  0  0
  3  6  2  0  0  0  0
  4  2  2  0  0  0  0
  5  1  1  0  0  0  0
  6  5  1  0  0  0  0
  7  2  1  0  0  0  0
  8  5  2  0  0  0  0
  9  7  1  0  0  0  0
 10  9  1  0  0  0  0
 11  9  1  0  0  0  0
 12 11  1  0  0  0  0
 13 10  1  0  0  0  0
  3  4  1  0  0  0  0
 12 13  1  0  0  0  0
M  END
>  <Code> (P7018801347)
P7018801347

>  <Number of H-Donors> (P7018801347)
2

>  <Number of H-Acceptors> (P7018801347)
4

>  <Number of Rotatable bonds> (P7018801347)
2

>  <CLogP> (P7018801347)
7.000000000000000e-001

>  <Number of Rings> (P7018801347)
2

>  <PSA> (P7018801347)
6.580000000000000e+001

$$$$

  -ISIS-  11102212342D

 34 37  0  0  0  0  0  0  0  0999 V2000
    2.6750   -0.7292    0.0000 C   0  0  0  0  0  0  0  0  0  0  0  0
    3.5000   -0.7417    0.0000 N   0  0  3  0  0  0  0  0  0  0  0  0
    2.4125   -1.5167    0.0000 C   0  0  0  0  0  0  0  0  0  0  0  0
    3.7500   -1.5292    0.0000 C   0  0  0  0  0  0  0  0  0  0  0  0
    3.0750   -2.0042    0.0000 S   0  0  0  0  0  0  0  0  0  0  0  0
    4.0500   -0.1292    0.0000 C   0  0  0  0  0  0  0  0  0  0  0  0
    2.4542    0.0708    0.0000 C   0  0  0  0  0  0  0  0  0  0  0  0
    4.5500   -1.7042    0.0000 N   0  0  0  0  0  0  0  0  0  0  0  0
    1.5875   -1.5167    0.0000 C   0  0  0  0  0  0  0  0  0  0  0  0
    4.8500   -0.3042    0.0000 C   0  0  0  0  0  0  0  0  0  0  0  0
    5.1125   -1.0917    0.0000 C   0  0  0  0  0  0  0  0  0  0  0  0
    1.1792   -2.2292    0.0000 N   0  0  0  0  0  0  0  0  0  0  0  0
    1.7375    0.4833    0.0000 N   0  0  0  0  0  0  0  0  0  0  0  0
    0.3500   -2.2292    0.0000 C   0  0  0  0  0  0  0  0  0  0  0  0
   -0.0583   -2.9417    0.0000 C   0  0  0  0  0  0  0  0  0  0  0  0
    3.8000    0.6583    0.0000 O   0  0  0  0  0  0  0  0  0  0  0  0
    2.8625    0.7833    0.0000 O   0  0  0  0  0  0  0  0  0  0  0  0
    1.1667   -0.8042    0.0000 O   0  0  0  0  0  0  0  0  0  0  0  0
    0.9125    0.4833    0.0000 C   0  0  0  0  0  0  0  0  0  0  0  0
   -0.8833   -2.9417    0.0000 C   0  0  0  0  0  0  0  0  0  0  0  0
   -0.0583   -1.5167    0.0000 C   0  0  0  0  0  0  0  0  0  0  0  0
   -1.3000   -2.2292    0.0000 C   0  0  0  0  0  0  0  0  0  0  0  0
    0.5042    1.2083    0.0000 C   0  0  0  0  0  0  0  0  0  0  0  0
   -0.8833   -1.5042    0.0000 C   0  0  0  0  0  0  0  0  0  0  0  0
   -2.1250   -2.2167    0.0000 Cl  0  0  0  0  0  0  0  0  0  0  0  0
   -0.3208    1.2083    0.0000 C   0  0  0  0  0  0  0  0  0  0  0  0
    5.9167   -1.2667    0.0000 C   0  0  0  0  0  0  0  0  0  0  0  0
   -0.3208   -0.2292    0.0000 C   0  0  0  0  0  0  0  0  0  0  0  0
    0.3542   -3.6542    0.0000 C   0  0  0  0  0  0  0  0  0  0  0  0
    0.5042   -0.2292    0.0000 C   0  0  0  0  0  0  0  0  0  0  0  0
   -0.7333    0.4958    0.0000 C   0  0  0  0  0  0  0  0  0  0  0  0
   -0.7333    1.9208    0.0000 C   0  0  0  0  0  0  0  0  0  0  0  0
    6.4667   -0.6542    0.0000 C   0  0  0  0  0  0  0  0  0  0  0  0
    7.2792   -0.8292    0.0000 C   0  0  0  0  0  0  0  0  0  0  0  0
  2  1  1  0  0  0  0
  3  1  2  0  0  0  0
  4  2  1  0  0  0  0
  5  3  1  0  0  0  0
  6  2  1  0  0  0  0
  7  1  1  0  0  0  0
  8  4  2  0  0  0  0
  9  3  1  0  0  0  0
 10  6  1  0  0  0  0
 11 10  2  0  0  0  0
 12  9  1  0  0  0  0
 13  7  1  0  0  0  0
 14 12  1  0  0  0  0
 15 14  1  0  0  0  0
 16  6  2  0  0  0  0
 17  7  2  0  0  0  0
 18  9  2  0  0  0  0
 19 13  1  0  0  0  0
 20 15  2  0  0  0  0
 21 14  2  0  0  0  0
 22 24  2  0  0  0  0
 23 19  2  0  0  0  0
 24 21  1  0  0  0  0
 25 22  1  0  0  0  0
 26 23  1  0  0  0  0
 27 11  1  0  0  0  0
 28 30  2  0  0  0  0
 29 15  1  0  0  0  0
 30 19  1  0  0  0  0
 31 28  1  0  0  0  0
 32 26  1  0  0  0  0
 33 27  1  0  0  0  0
 34 33  1  0  0  0  0
  4  5  1  0  0  0  0
 11  8  1  0  0  0  0
 26 31  2  0  0  0  0
 22 20  1  0  0  0  0
M  END
>  <Code> (P7018790057)
P7018790057

>  <Number of H-Donors> (P7018790057)
2

>  <Number of H-Acceptors> (P7018790057)
5

>  <Number of Rotatable bonds> (P7018790057)
6

>  <CLogP> (P7018790057)
5.000000000000000e+000

>  <Number of Rings> (P7018790057)
4

>  <PSA> (P7018790057)
1.162000000000000e+002

$$$$

  -ISIS-  11102212342D

 28 32  0  0  0  0  0  0  0  0999 V2000
   -0.3833    0.8708    0.0000 N   0  0  3  0  0  0  0  0  0  0  0  0
    0.0667    1.4750    0.0000 C   0  0  0  0  0  0  0  0  0  0  0  0
   -0.3833    2.0958    0.0000 C   0  0  0  0  0  0  0  0  0  0  0  0
    0.8167    1.5583    0.0000 N   0  0  0  0  0  0  0  0  0  0  0  0
   -0.0750    2.7833    0.0000 N   0  0  0  0  0  0  0  0  0  0  0  0
   -1.0958    1.8583    0.0000 C   0  0  0  0  0  0  0  0  0  0  0  0
   -1.0958    1.1000    0.0000 C   0  0  0  0  0  0  0  0  0  0  0  0
   -0.1458    0.1583    0.0000 C   0  0  0  0  0  0  0  0  0  0  0  0
    0.5875   -0.0042    0.0000 C   0  0  0  0  0  0  0  0  0  0  0  0
    1.1250    2.2458    0.0000 C   0  0  0  0  0  0  0  0  0  0  0  0
    0.6792    2.8583    0.0000 C   0  0  0  0  0  0  0  0  0  0  0  0
    0.8167   -0.7167    0.0000 C   0  0  0  0  0  0  0  0  0  0  0  0
    1.0917    0.5583    0.0000 O   0  0  0  0  0  0  0  0  0  0  0  0
    0.3167   -1.2667    0.0000 C   0  0  0  0  0  0  0  0  0  0  0  0
    1.5500   -0.8667    0.0000 C   0  0  0  0  0  0  0  0  0  0  0  0
    1.2792   -2.1417    0.0000 C   0  0  0  0  0  0  0  0  0  0  0  0
   -1.7500    2.2333    0.0000 C   0  0  0  0  0  0  0  0  0  0  0  0
    1.7792   -1.5792    0.0000 C   0  0  0  0  0  0  0  0  0  0  0  0
    0.5417   -1.9792    0.0000 C   0  0  0  0  0  0  0  0  0  0  0  0
   -1.7500    0.7250    0.0000 C   0  0  0  0  0  0  0  0  0  0  0  0
    1.5125   -2.8500    0.0000 O   0  0  0  0  0  0  0  0  0  0  0  0
    1.8792    2.3208    0.0000 C   0  0  0  0  0  0  0  0  0  0  0  0
    0.9875    3.5458    0.0000 C   0  0  0  0  0  0  0  0  0  0  0  0
    2.2417   -3.0042    0.0000 C   0  0  0  0  0  0  0  0  0  0  0  0
   -2.3958    1.8500    0.0000 C   0  0  0  0  0  0  0  0  0  0  0  0
   -2.3958    1.1000    0.0000 C   0  0  0  0  0  0  0  0  0  0  0  0
    2.1917    3.0208    0.0000 C   0  0  0  0  0  0  0  0  0  0  0  0
    1.7417    3.6333    0.0000 C   0  0  0  0  0  0  0  0  0  0  0  0
  2  1  1  0  0  0  0
  3  2  1  0  0  0  0
  4  2  2  0  0  0  0
  5  3  2  0  0  0  0
  6  7  1  0  0  0  0
  7  1  1  0  0  0  0
  8  1  1  0  0  0  0
  9  8  1  0  0  0  0
 10  4  1  0  0  0  0
 11 10  2  0  0  0  0
 12  9  1  0  0  0  0
 13  9  2  0  0  0  0
 14 12  2  0  0  0  0
 15 12  1  0  0  0  0
 16 18  1  0  0  0  0
 17  6  2  0  0  0  0
 18 15  2  0  0  0  0
 19 14  1  0  0  0  0
 20  7  2  0  0  0  0
 21 16  1  0  0  0  0
 22 10  1  0  0  0  0
 23 11  1  0  0  0  0
 24 21  1  0  0  0  0
 25 26  2  0  0  0  0
 26 20  1  0  0  0  0
 27 22  2  0  0  0  0
 28 27  1  0  0  0  0
  6  3  1  0  0  0  0
 25 17  1  0  0  0  0
  5 11  1  0  0  0  0
 16 19  2  0  0  0  0
 23 28  2  0  0  0  0
M  END
>  <Code> (P7018771476)
P7018771476

>  <Number of H-Donors> (P7018771476)
0

>  <Number of H-Acceptors> (P7018771476)
4

>  <Number of Rotatable bonds> (P7018771476)
4

>  <CLogP> (P7018771476)
4.900000000000000e+000

>  <Number of Rings> (P7018771476)
5

>  <PSA> (P7018771476)
5.700000000000000e+001

$$$$

  -ISIS-  11102212342D

 29 32  0  0  0  0  0  0  0  0999 V2000
   -1.0750   -0.4375    0.0000 C   0  0  0  0  0  0  0  0  0  0  0  0
    0.1500    0.2958    0.0000 N   0  0  3  0  0  0  0  0  0  0  0  0
   -0.6500   -1.1542    0.0000 C   0  0  0  0  0  0  0  0  0  0  0  0
   -0.6750    0.2833    0.0000 C   0  0  0  0  0  0  0  0  0  0  0  0
    0.1750   -1.1417    0.0000 N   0  0  0  0  0  0  0  0  0  0  0  0
   -1.8875   -0.6250    0.0000 C   0  0  0  0  0  0  0  0  0  0  0  0
    0.5750   -0.4250    0.0000 C   0  0  0  0  0  0  0  0  0  0  0  0
   -1.2000   -1.7750    0.0000 S   0  0  0  0  0  0  0  0  0  0  0  0
   -1.9708   -1.4542    0.0000 C   0  0  0  0  0  0  0  0  0  0  0  0
    1.3792    1.0208    0.0000 C   0  0  0  0  0  0  0  0  0  0  0  0
    0.5625    1.0125    0.0000 C   0  0  3  0  0  0  0  0  0  0  0  0
    1.8000    0.3083    0.0000 N   0  0  0  0  0  0  0  0  0  0  0  0
    2.6250    0.3083    0.0000 C   0  0  0  0  0  0  0  0  0  0  0  0
    3.0375   -0.4000    0.0000 C   0  0  0  0  0  0  0  0  0  0  0  0
   -1.1000    0.9875    0.0000 O   0  0  0  0  0  0  0  0  0  0  0  0
    1.7875    1.7375    0.0000 O   0  0  0  0  0  0  0  0  0  0  0  0
   -2.7208   -1.8125    0.0000 C   0  0  0  0  0  0  0  0  0  0  0  0
    3.0375    1.0208    0.0000 C   0  0  0  0  0  0  0  0  0  0  0  0
    3.8500    1.0250    0.0000 C   0  0  0  0  0  0  0  0  0  0  0  0
    3.8625   -0.4000    0.0000 C   0  0  0  0  0  0  0  0  0  0  0  0
    4.2625    0.3125    0.0000 C   0  0  0  0  0  0  0  0  0  0  0  0
    4.2750   -1.1042    0.0000 Cl  0  0  0  0  0  0  0  0  0  0  0  0
    0.1417    1.7208    0.0000 C   0  0  0  0  0  0  0  0  0  0  0  0
    2.6167    1.7333    0.0000 C   0  0  0  0  0  0  0  0  0  0  0  0
   -3.3875   -1.3292    0.0000 C   0  0  0  0  0  0  0  0  0  0  0  0
   -2.7833   -2.6292    0.0000 C   0  0  0  0  0  0  0  0  0  0  0  0
   -4.1458   -1.6875    0.0000 C   0  0  0  0  0  0  0  0  0  0  0  0
   -3.5250   -2.9875    0.0000 C   0  0  0  0  0  0  0  0  0  0  0  0
   -4.2208   -2.5167    0.0000 C   0  0  0  0  0  0  0  0  0  0  0  0
  2  4  1  0  0  0  0
  3  1  2  0  0  0  0
  4  1  1  0  0  0  0
  5  3  1  0  0  0  0
  6  1  1  0  0  0  0
  7  2  1  0  0  0  0
  8  3  1  0  0  0  0
  9  6  2  0  0  0  0
 10 11  1  0  0  0  0
 11  2  1  0  0  0  0
 12 10  1  0  0  0  0
 13 12  1  0  0  0  0
 14 13  2  0  0  0  0
 15  4  2  0  0  0  0
 16 10  2  0  0  0  0
 17  9  1  0  0  0  0
 18 13  1  0  0  0  0
 19 18  2  0  0  0  0
 20 14  1  0  0  0  0
 21 19  1  0  0  0  0
 22 20  1  0  0  0  0
 23 11  1  0  0  0  0
 24 18  1  0  0  0  0
 25 17  2  0  0  0  0
 26 17  1  0  0  0  0
 27 25  1  0  0  0  0
 28 26  2  0  0  0  0
 29 28  1  0  0  0  0
  9  8  1  0  0  0  0
  5  7  2  0  0  0  0
 27 29  2  0  0  0  0
 20 21  2  0  0  0  0
M  END
>  <Code> (P7018720325)
P7018720325

>  <Number of H-Donors> (P7018720325)
1

>  <Number of H-Acceptors> (P7018720325)
3

>  <Number of Rotatable bonds> (P7018720325)
4

>  <CLogP> (P7018720325)
4.800000000000000e+000

>  <Number of Rings> (P7018720325)
4

>  <PSA> (P7018720325)
9.000000000000000e+001

$$$$

  -ISIS-  11102212342D

 19 21  0  0  0  0  0  0  0  0999 V2000
    3.2917   -0.3917    0.0000 C   0  0  0  0  0  0  0  0  0  0  0  0
    2.5792   -0.8042    0.0000 C   0  0  0  0  0  0  0  0  0  0  0  0
    4.0042   -0.8000    0.0000 N   0  0  0  0  0  0  0  0  0  0  0  0
    3.2875    0.4333    0.0000 N   0  0  0  0  0  0  0  0  0  0  0  0
    2.5792   -1.6292    0.0000 C   0  0  0  0  0  0  0  0  0  0  0  0
    3.3000   -2.0417    0.0000 N   0  0  0  0  0  0  0  0  0  0  0  0
    4.0125   -1.6292    0.0000 C   0  0  0  0  0  0  0  0  0  0  0  0
    1.8667   -0.3917    0.0000 C   0  0  0  0  0  0  0  0  0  0  0  0
    1.8667   -2.0500    0.0000 C   0  0  0  0  0  0  0  0  0  0  0  0
    1.1542   -0.8125    0.0000 C   0  0  0  0  0  0  0  0  0  0  0  0
    4.0000    0.8500    0.0000 C   0  0  3  0  0  0  0  0  0  0  0  0
    1.1542   -1.6375    0.0000 C   0  0  0  0  0  0  0  0  0  0  0  0
    0.4417   -0.4000    0.0000 Br  0  0  0  0  0  0  0  0  0  0  0  0
    3.9375    1.6625    0.0000 C   0  0  0  0  0  0  0  0  0  0  0  0
    4.6875    0.3833    0.0000 C   0  0  0  0  0  0  0  0  0  0  0  0
    4.5375    2.2333    0.0000 C   0  0  0  0  0  0  0  0  0  0  0  0
    5.4750    0.6333    0.0000 C   0  0  0  0  0  0  0  0  0  0  0  0
    5.3542    2.1208    0.0000 C   0  0  0  0  0  0  0  0  0  0  0  0
    5.7667    1.4083    0.0000 C   0  0  0  0  0  0  0  0  0  0  0  0
  2  1  1  0  0  0  0
  3  1  2  0  0  0  0
  4  1  1  0  0  0  0
  5  2  1  0  0  0  0
  6  7  2  0  0  0  0
  7  3  1  0  0  0  0
  8  2  2  0  0  0  0
  9  5  2  0  0  0  0
 10  8  1  0  0  0  0
 11  4  1  0  0  0  0
 12 10  2  0  0  0  0
 13 10  1  0  0  0  0
 14 11  1  0  0  0  0
 15 11  1  0  0  0  0
 16 14  1  0  0  0  0
 17 15  1  0  0  0  0
 18 16  1  0  0  0  0
 19 17  1  0  0  0  0
  5  6  1  0  0  0  0
 12  9  1  0  0  0  0
 18 19  1  0  0  0  0
M  END
>  <Code> (P7018670048)
P7018670048

>  <Number of H-Donors> (P7018670048)
1

>  <Number of H-Acceptors> (P7018670048)
3

>  <Number of Rotatable bonds> (P7018670048)
2

>  <CLogP> (P7018670048)
4.300000000000000e+000

>  <Number of Rings> (P7018670048)
3

>  <PSA> (P7018670048)
3.780000000000000e+001

$$$$

  -ISIS-  11102212342D

 16 18  0  0  0  0  0  0  0  0999 V2000
   -0.6708    1.6625    0.0000 N   0  0  0  0  0  0  0  0  0  0  0  0
   -1.8708   -0.0292    0.0000 N   0  0  3  0  0  0  0  0  0  0  0  0
   -1.8708    1.2500    0.0000 C   0  0  0  0  0  0  0  0  0  0  0  0
    0.0542    0.6333    0.0000 C   0  0  0  0  0  0  0  0  0  0  0  0
   -0.6708   -0.4292    0.0000 C   0  0  0  0  0  0  0  0  0  0  0  0
    1.3792    0.5208    0.0000 C   0  0  0  0  0  0  0  0  0  0  0  0
   -3.0000   -0.6875    0.0000 C   0  0  0  0  0  0  0  0  0  0  0  0
   -3.0000    1.9125    0.0000 C   0  0  0  0  0  0  0  0  0  0  0  0
   -4.1333   -0.0292    0.0000 C   0  0  0  0  0  0  0  0  0  0  0  0
   -4.1333    1.2500    0.0000 C   0  0  0  0  0  0  0  0  0  0  0  0
    1.9167   -0.6500    0.0000 C   0  0  0  0  0  0  0  0  0  0  0  0
    2.1000    1.5833    0.0000 C   0  0  0  0  0  0  0  0  0  0  0  0
    3.9542    0.3000    0.0000 C   0  0  0  0  0  0  0  0  0  0  0  0
    3.2292   -0.7542    0.0000 C   0  0  0  0  0  0  0  0  0  0  0  0
    3.4167    1.4708    0.0000 C   0  0  0  0  0  0  0  0  0  0  0  0
    5.2375    0.1958    0.0000 F   0  0  0  0  0  0  0  0  0  0  0  0
  2  3  1  0  0  0  0
  3  1  2  0  0  0  0
  4  1  1  0  0  0  0
  5  4  2  0  0  0  0
  6  4  1  0  0  0  0
  7  2  1  0  0  0  0
  8  3  1  0  0  0  0
  9 10  1  0  0  0  0
 10  8  2  0  0  0  0
 11  6  2  0  0  0  0
 12  6  1  0  0  0  0
 13 15  1  0  0  0  0
 14 11  1  0  0  0  0
 15 12  2  0  0  0  0
 16 13  1  0  0  0  0
  2  5  1  0  0  0  0
 13 14  2  0  0  0  0
  9  7  2  0  0  0  0
M  END
>  <Code> (P7018655636)
P7018655636

>  <Number of H-Donors> (P7018655636)
0

>  <Number of H-Acceptors> (P7018655636)
1

>  <Number of Rotatable bonds> (P7018655636)
1

>  <CLogP> (P7018655636)
2.700000000000000e+000

>  <Number of Rings> (P7018655636)
3

>  <PSA> (P7018655636)
1.730000000000000e+001

$$$$

  -ISIS-  11102212342D

 17 19  0  0  0  0  0  0  0  0999 V2000
    6.7125   -5.8917    0.0000 C   0  0  0  0  0  0  0  0  0  0  0  0
    6.0042   -6.3125    0.0000 C   0  0  0  0  0  0  0  0  0  0  0  0
    7.4292   -6.3042    0.0000 N   0  0  0  0  0  0  0  0  0  0  0  0
    6.7042   -5.0750    0.0000 N   0  0  0  0  0  0  0  0  0  0  0  0
    6.0042   -7.1375    0.0000 C   0  0  0  0  0  0  0  0  0  0  0  0
    6.7167   -7.5500    0.0000 N   0  0  0  0  0  0  0  0  0  0  0  0
    7.4292   -7.1292    0.0000 C   0  0  0  0  0  0  0  0  0  0  0  0
    5.2875   -5.9000    0.0000 C   0  0  0  0  0  0  0  0  0  0  0  0
    5.2875   -7.5542    0.0000 C   0  0  0  0  0  0  0  0  0  0  0  0
    4.5750   -6.3125    0.0000 C   0  0  0  0  0  0  0  0  0  0  0  0
    7.1917   -4.4042    0.0000 C   0  0  3  0  0  0  0  0  0  0  0  0
    4.5750   -7.1417    0.0000 C   0  0  0  0  0  0  0  0  0  0  0  0
    3.8625   -5.9042    0.0000 Br  0  0  0  0  0  0  0  0  0  0  0  0
    8.0167   -4.4042    0.0000 C   0  0  0  0  0  0  0  0  0  0  0  0
    6.9417   -3.6250    0.0000 C   0  0  0  0  0  0  0  0  0  0  0  0
    7.6042   -3.1375    0.0000 C   0  0  0  0  0  0  0  0  0  0  0  0
    8.2750   -3.6250    0.0000 C   0  0  0  0  0  0  0  0  0  0  0  0
  2  1  1  0  0  0  0
  3  1  2  0  0  0  0
  4  1  1  0  0  0  0
  5  2  1  0  0  0  0
  6  7  2  0  0  0  0
  7  3  1  0  0  0  0
  8  2  2  0  0  0  0
  9  5  2  0  0  0  0
 10  8  1  0  0  0  0
 11  4  1  0  0  0  0
 12 10  2  0  0  0  0
 13 10  1  0  0  0  0
 14 11  1  0  0  0  0
 15 11  1  0  0  0  0
 16 15  1  0  0  0  0
 17 14  1  0  0  0  0
  5  6  1  0  0  0  0
 17 16  1  0  0  0  0
  9 12  1  0  0  0  0
M  END
>  <Code> (P7017670004)
P7017670004

>  <Number of H-Donors> (P7017670004)
1

>  <Number of H-Acceptors> (P7017670004)
3

>  <Number of Rotatable bonds> (P7017670004)
2

>  <CLogP> (P7017670004)
3.400000000000000e+000

>  <Number of Rings> (P7017670004)
3

>  <PSA> (P7017670004)
3.780000000000000e+001

$$$$

  -ISIS-  11102212342D

 18 20  0  0  0  0  0  0  0  0999 V2000
    4.7292   -3.7292    0.0000 C   0  0  0  0  0  0  0  0  0  0  0  0
    4.0167   -4.1417    0.0000 C   0  0  0  0  0  0  0  0  0  0  0  0
    5.4417   -4.1292    0.0000 N   0  0  0  0  0  0  0  0  0  0  0  0
    4.7250   -2.9042    0.0000 N   0  0  0  0  0  0  0  0  0  0  0  0
    4.7375   -5.3792    0.0000 N   0  0  0  0  0  0  0  0  0  0  0  0
    5.4500   -4.9667    0.0000 C   0  0  0  0  0  0  0  0  0  0  0  0
    4.0167   -4.9667    0.0000 C   0  0  0  0  0  0  0  0  0  0  0  0
    5.5167   -2.6750    0.0000 C   0  0  3  0  0  0  0  0  0  0  0  0
    3.3042   -3.7292    0.0000 C   0  0  0  0  0  0  0  0  0  0  0  0
    3.3042   -5.3875    0.0000 C   0  0  0  0  0  0  0  0  0  0  0  0
    5.9625   -3.1417    0.0000 C   0  0  0  0  0  0  0  0  0  0  0  0
    5.6542   -1.9542    0.0000 C   0  0  0  0  0  0  0  0  0  0  0  0
    2.5917   -4.1500    0.0000 C   0  0  0  0  0  0  0  0  0  0  0  0
    2.5917   -4.9750    0.0000 C   0  0  0  0  0  0  0  0  0  0  0  0
    6.3542   -1.6292    0.0000 C   0  0  0  0  0  0  0  0  0  0  0  0
    6.7125   -3.1417    0.0000 C   0  0  0  0  0  0  0  0  0  0  0  0
    7.1542   -2.7000    0.0000 C   0  0  0  0  0  0  0  0  0  0  0  0
    7.0375   -1.9792    0.0000 C   0  0  0  0  0  0  0  0  0  0  0  0
  2  1  1  0  0  0  0
  3  1  2  0  0  0  0
  4  1  1  0  0  0  0
  5  6  2  0  0  0  0
  6  3  1  0  0  0  0
  7  2  1  0  0  0  0
  8  4  1  0  0  0  0
  9  2  2  0  0  0  0
 10  7  2  0  0  0  0
 11  8  1  0  0  0  0
 12  8  1  0  0  0  0
 13  9  1  0  0  0  0
 14 13  2  0  0  0  0
 15 12  1  0  0  0  0
 16 11  1  0  0  0  0
 17 16  1  0  0  0  0
 18 15  1  0  0  0  0
  5  7  1  0  0  0  0
 14 10  1  0  0  0  0
 18 17  1  0  0  0  0
M  END
>  <Code> (P7017670003)
P7017670003

>  <Number of H-Donors> (P7017670003)
1

>  <Number of H-Acceptors> (P7017670003)
3

>  <Number of Rotatable bonds> (P7017670003)
2

>  <CLogP> (P7017670003)
3.600000000000000e+000

>  <Number of Rings> (P7017670003)
3

>  <PSA> (P7017670003)
3.780000000000000e+001

$$$$

  -ISIS-  11102212342D

 20 20  0  0  0  0  0  0  0  0999 V2000
    2.5917    3.6708    0.0000 C   0  0  0  0  0  0  0  0  0  0  0  0
    3.2417    2.5458    0.0000 C   0  0  0  0  0  0  0  0  0  0  0  0
    3.8917    2.9208    0.0000 C   0  0  0  0  0  0  0  0  0  0  0  0
    2.5917    2.9208    0.0000 C   0  0  0  0  0  0  0  0  0  0  0  0
    3.8917    3.6708    0.0000 N   0  0  0  0  0  0  0  0  0  0  0  0
    4.5417    2.5458    0.0000 C   0  0  0  0  0  0  0  0  0  0  0  0
    1.9417    4.0417    0.0000 C   0  0  0  0  0  0  0  0  0  0  0  0
    3.2417    4.0417    0.0000 C   0  0  0  0  0  0  0  0  0  0  0  0
    3.2417    1.7958    0.0000 C   0  0  0  0  0  0  0  0  0  0  0  0
    4.5417    1.7958    0.0000 C   0  0  0  0  0  0  0  0  0  0  0  0
    1.9417    4.7917    0.0000 O   0  0  0  0  0  0  0  0  0  0  0  0
    3.8917    1.4208    0.0000 C   0  0  0  0  0  0  0  0  0  0  0  0
    1.9417    2.5458    0.0000 N   0  0  0  0  0  0  0  0  0  0  0  0
    1.2917    3.6708    0.0000 O   0  0  0  0  0  0  0  0  0  0  0  0
    5.1917    1.4208    0.0000 Cl  0  0  0  0  0  0  0  0  0  0  0  0
   -0.3208    1.2083    0.0000 Cl  0  0  0  0  0  0  0  0  0  0  0  0
    5.1917    2.9208    0.0000 C   0  0  0  0  0  0  0  0  0  0  0  0
    1.2917    0.6708    0.0000 O   0  0  0  0  0  0  0  0  0  0  0  0
    1.9417    1.7958    0.0000 C   0  0  0  0  0  0  0  0  0  0  0  0
    1.2917    1.4208    0.0000 C   0  0  0  0  0  0  0  0  0  0  0  0
  2  4  1  0  0  0  0
  3  5  1  0  0  0  0
  4  1  2  0  0  0  0
  5  8  2  0  0  0  0
  6  3  2  0  0  0  0
  7  1  1  0  0  0  0
  8  1  1  0  0  0  0
  9  2  2  0  0  0  0
 10  6  1  0  0  0  0
 11  7  2  0  0  0  0
 12  9  1  0  0  0  0
 13  4  1  0  0  0  0
 14  7  1  0  0  0  0
 15 10  1  0  0  0  0
 17  6  1  0  0  0  0
 18 20  1  0  0  0  0
 19 13  1  0  0  0  0
 20 19  1  0  0  0  0
  3  2  1  0  0  0  0
 10 12  2  0  0  0  0
M  END
>  <Code> (P7017550383)
P7017550383

>  <Saltdata> (P7017550383)
HCl

>  <Number of H-Donors> (P7017550383)
3

>  <Number of H-Acceptors> (P7017550383)
5

>  <Number of Rotatable bonds> (P7017550383)
4

>  <CLogP> (P7017550383)
2.400000000000000e+000

>  <Number of Rings> (P7017550383)
2

>  <PSA> (P7017550383)
8.250000000000000e+001

$$$$

  -ISIS-  11102212342D

 27 28  0  0  0  0  0  0  0  0999 V2000
    2.5417    3.3708    0.0000 C   0  0  0  0  0  0  0  0  0  0  0  0
    2.1667    4.0125    0.0000 C   0  0  0  0  0  0  0  0  0  0  0  0
    2.1667    2.7208    0.0000 C   0  0  0  0  0  0  0  0  0  0  0  0
    1.4167    2.7208    0.0000 C   0  0  0  0  0  0  0  0  0  0  0  0
    3.2917    3.3708    0.0000 N   0  0  0  0  0  0  0  0  0  0  0  0
    1.0417    3.3708    0.0000 N   0  0  0  0  0  0  0  0  0  0  0  0
    1.0417    2.0708    0.0000 C   0  0  0  0  0  0  0  0  0  0  0  0
    2.5417    4.6542    0.0000 C   0  0  0  0  0  0  0  0  0  0  0  0
    1.4167    4.0125    0.0000 C   0  0  0  0  0  0  0  0  0  0  0  0
    3.5417    2.6625    0.0000 C   0  0  0  0  0  0  0  0  0  0  0  0
    2.5417    2.0708    0.0000 C   0  0  0  0  0  0  0  0  0  0  0  0
    4.2875    2.5333    0.0000 C   0  0  0  0  0  0  0  0  0  0  0  0
    4.5417    1.8333    0.0000 C   0  0  0  0  0  0  0  0  0  0  0  0
    1.4167    1.4208    0.0000 C   0  0  0  0  0  0  0  0  0  0  0  0
    2.1667    5.3125    0.0000 O   0  0  0  0  0  0  0  0  0  0  0  0
    2.1667    1.4208    0.0000 C   0  0  0  0  0  0  0  0  0  0  0  0
    3.0667    2.0875    0.0000 C   0  0  0  0  0  0  0  0  0  0  0  0
    4.0542    1.2583    0.0000 C   0  0  0  0  0  0  0  0  0  0  0  0
    3.2917    4.6542    0.0000 O   0  0  0  0  0  0  0  0  0  0  0  0
    1.0417    0.7708    0.0000 Cl  0  0  0  0  0  0  0  0  0  0  0  0
    3.3167    1.3833    0.0000 C   0  0  0  0  0  0  0  0  0  0  0  0
    4.7667    3.1083    0.0000 O   0  0  0  0  0  0  0  0  0  0  0  0
   -0.9458    2.1458    0.0000 Cl  0  0  0  0  0  0  0  0  0  0  0  0
    0.2917    2.0708    0.0000 C   0  0  0  0  0  0  0  0  0  0  0  0
    4.3167    0.5458    0.0000 O   0  0  0  0  0  0  0  0  0  0  0  0
    5.3792    3.5458    0.0000 C   0  0  0  0  0  0  0  0  0  0  0  0
    3.8292   -0.0250    0.0000 C   0  0  0  0  0  0  0  0  0  0  0  0
  2  1  2  0  0  0  0
  3  1  1  0  0  0  0
  4  3  1  0  0  0  0
  5  1  1  0  0  0  0
  6  4  1  0  0  0  0
  7  4  2  0  0  0  0
  8  2  1  0  0  0  0
  9  2  1  0  0  0  0
 10  5  1  0  0  0  0
 11  3  2  0  0  0  0
 12 10  2  0  0  0  0
 13 12  1  0  0  0  0
 14 16  2  0  0  0  0
 15  8  2  0  0  0  0
 16 11  1  0  0  0  0
 17 10  1  0  0  0  0
 18 21  1  0  0  0  0
 19  8  1  0  0  0  0
 20 14  1  0  0  0  0
 21 17  2  0  0  0  0
 22 12  1  0  0  0  0
 24  7  1  0  0  0  0
 25 18  1  0  0  0  0
 26 22  1  0  0  0  0
 27 25  1  0  0  0  0
  9  6  2  0  0  0  0
 14  7  1  0  0  0  0
 13 18  2  0  0  0  0
M  END
>  <Code> (P7017550367)
P7017550367

>  <Saltdata> (P7017550367)
HCl

>  <Number of H-Donors> (P7017550367)
2

>  <Number of H-Acceptors> (P7017550367)
6

>  <Number of Rotatable bonds> (P7017550367)
5

>  <CLogP> (P7017550367)
4.700000000000000e+000

>  <Number of Rings> (P7017550367)
3

>  <PSA> (P7017550367)
8.070000000000000e+001

$$$$

  -ISIS-  11102212342D

 30 32  0  0  0  0  0  0  0  0999 V2000
   -2.4208   -0.6917    0.0000 C   0  0  0  0  0  0  0  0  0  0  0  0
   -2.0083   -1.3667    0.0000 C   0  0  0  0  0  0  0  0  0  0  0  0
   -3.2083   -0.8667    0.0000 C   0  0  0  0  0  0  0  0  0  0  0  0
   -3.2708   -1.6292    0.0000 C   0  0  0  0  0  0  0  0  0  0  0  0
   -2.5333   -1.9292    0.0000 S   0  0  0  0  0  0  0  0  0  0  0  0
   -2.0333   -0.0292    0.0000 C   0  0  0  0  0  0  0  0  0  0  0  0
   -1.2583   -0.0042    0.0000 N   0  0  3  0  0  0  0  0  0  0  0  0
   -1.2375   -1.3542    0.0000 N   0  0  0  0  0  0  0  0  0  0  0  0
   -0.8458   -0.6917    0.0000 C   0  0  0  0  0  0  0  0  0  0  0  0
   -3.9708   -1.9542    0.0000 C   0  0  0  0  0  0  0  0  0  0  0  0
   -0.8833    0.6708    0.0000 C   0  0  0  0  0  0  0  0  0  0  0  0
   -0.0958    0.6958    0.0000 C   0  0  0  0  0  0  0  0  0  0  0  0
    3.4542    1.3708    0.0000 C   0  0  0  0  0  0  0  0  0  0  0  0
   -2.4458    0.6458    0.0000 O   0  0  0  0  0  0  0  0  0  0  0  0
    3.8542    0.7083    0.0000 C   0  0  0  0  0  0  0  0  0  0  0  0
   -4.6208   -1.5167    0.0000 O   0  0  0  0  0  0  0  0  0  0  0  0
    2.6667    1.3708    0.0000 C   0  0  0  0  0  0  0  0  0  0  0  0
    0.2917    1.3708    0.0000 O   0  0  0  0  0  0  0  0  0  0  0  0
    0.3167    0.0333    0.0000 N   0  0  0  0  0  0  0  0  0  0  0  0
    3.4542    0.0333    0.0000 C   0  0  0  0  0  0  0  0  0  0  0  0
   -4.0333   -2.7167    0.0000 N   0  0  0  0  0  0  0  0  0  0  0  0
   -3.7958   -0.3542    0.0000 C   0  0  0  0  0  0  0  0  0  0  0  0
    2.2792    0.7083    0.0000 C   0  0  0  0  0  0  0  0  0  0  0  0
    2.6667    0.0333    0.0000 C   0  0  0  0  0  0  0  0  0  0  0  0
    3.8542    2.0458    0.0000 O   0  0  0  0  0  0  0  0  0  0  0  0
    4.6292    0.7083    0.0000 O   0  0  0  0  0  0  0  0  0  0  0  0
    1.1042    0.0333    0.0000 C   0  0  0  0  0  0  0  0  0  0  0  0
    1.5000    0.7083    0.0000 C   0  0  0  0  0  0  0  0  0  0  0  0
    3.4542    2.7083    0.0000 C   0  0  0  0  0  0  0  0  0  0  0  0
    5.0292    1.3708    0.0000 C   0  0  0  0  0  0  0  0  0  0  0  0
  2  1  2  0  0  0  0
  3  1  1  0  0  0  0
  4  3  2  0  0  0  0
  5  2  1  0  0  0  0
  6  1  1  0  0  0  0
  7  6  1  0  0  0  0
  8  2  1  0  0  0  0
  9  7  1  0  0  0  0
 10  4  1  0  0  0  0
 11  7  1  0  0  0  0
 12 11  1  0  0  0  0
 13 17  2  0  0  0  0
 14  6  2  0  0  0  0
 15 20  2  0  0  0  0
 16 10  2  0  0  0  0
 17 23  1  0  0  0  0
 18 12  2  0  0  0  0
 19 12  1  0  0  0  0
 20 24  1  0  0  0  0
 21 10  1  0  0  0  0
 22  3  1  0  0  0  0
 23 28  1  0  0  0  0
 24 23  2  0  0  0  0
 25 13  1  0  0  0  0
 26 15  1  0  0  0  0
 27 19  1  0  0  0  0
 28 27  1  0  0  0  0
 29 25  1  0  0  0  0
 30 26  1  0  0  0  0
  4  5  1  0  0  0  0
  9  8  2  0  0  0  0
 15 13  1  0  0  0  0
M  END
>  <Code> (P7016390396)
P7016390396

>  <Number of H-Donors> (P7016390396)
2

>  <Number of H-Acceptors> (P7016390396)
6

>  <Number of Rotatable bonds> (P7016390396)
8

>  <CLogP> (P7016390396)
1.500000000000000e+000

>  <Number of Rings> (P7016390396)
3

>  <PSA> (P7016390396)
1.516000000000000e+002

$$$$

  -ISIS-  11102212342D

 24 27  0  0  0  0  0  0  0  0999 V2000
   -0.7125   -0.6875    0.0000 C   0  0  0  0  0  0  0  0  0  0  0  0
   -1.3583   -0.3167    0.0000 C   0  0  0  0  0  0  0  0  0  0  0  0
   -1.9958   -0.6917    0.0000 C   0  0  0  0  0  0  0  0  0  0  0  0
   -1.3500   -1.8042    0.0000 N   0  0  0  0  0  0  0  0  0  0  0  0
   -0.7083   -1.4292    0.0000 C   0  0  0  0  0  0  0  0  0  0  0  0
   -1.9958   -1.4375    0.0000 C   0  0  0  0  0  0  0  0  0  0  0  0
    0.5750   -0.6792    0.0000 N   0  0  3  0  0  0  0  0  0  0  0  0
   -0.0833   -0.3125    0.0000 C   0  0  0  0  0  0  0  0  0  0  0  0
    1.2167   -0.3000    0.0000 C   0  0  0  0  0  0  0  0  0  0  0  0
    1.8667   -0.6625    0.0000 C   0  0  0  0  0  0  0  0  0  0  0  0
   -2.6458   -0.3250    0.0000 C   0  0  0  0  0  0  0  0  0  0  0  0
    1.8667   -1.4125    0.0000 C   0  0  0  0  0  0  0  0  0  0  0  0
   -2.6458   -1.8125    0.0000 C   0  0  0  0  0  0  0  0  0  0  0  0
    0.5792   -1.4167    0.0000 C   0  0  0  0  0  0  0  0  0  0  0  0
    1.2292   -1.7917    0.0000 C   0  0  0  0  0  0  0  0  0  0  0  0
   -1.3583    0.4250    0.0000 O   0  0  0  0  0  0  0  0  0  0  0  0
   -3.2833   -0.6917    0.0000 C   0  0  0  0  0  0  0  0  0  0  0  0
   -3.2833   -1.4417    0.0000 C   0  0  0  0  0  0  0  0  0  0  0  0
   -3.9333   -0.3250    0.0000 Br  0  0  0  0  0  0  0  0  0  0  0  0
   -0.0625   -1.8042    0.0000 C   0  0  0  0  0  0  0  0  0  0  0  0
    2.5042   -0.2875    0.0000 C   0  0  0  0  0  0  0  0  0  0  0  0
    2.5167   -1.7792    0.0000 C   0  0  0  0  0  0  0  0  0  0  0  0
    3.1625   -0.6542    0.0000 C   0  0  0  0  0  0  0  0  0  0  0  0
    3.1667   -1.4042    0.0000 C   0  0  0  0  0  0  0  0  0  0  0  0
  2  1  2  0  0  0  0
  3  2  1  0  0  0  0
  4  5  2  0  0  0  0
  5  1  1  0  0  0  0
  6  4  1  0  0  0  0
  7  8  1  0  0  0  0
  8  1  1  0  0  0  0
  9  7  1  0  0  0  0
 10  9  1  0  0  0  0
 11  3  2  0  0  0  0
 12 15  1  0  0  0  0
 13  6  2  0  0  0  0
 14  7  1  0  0  0  0
 15 14  1  0  0  0  0
 16  2  1  0  0  0  0
 17 11  1  0  0  0  0
 18 13  1  0  0  0  0
 19 17  1  0  0  0  0
 20  5  1  0  0  0  0
 21 10  1  0  0  0  0
 22 12  1  0  0  0  0
 23 21  2  0  0  0  0
 24 22  2  0  0  0  0
  3  6  1  0  0  0  0
 12 10  2  0  0  0  0
 17 18  2  0  0  0  0
 23 24  1  0  0  0  0
M  END
>  <Code> (P7016350283)
P7016350283

>  <Number of H-Donors> (P7016350283)
1

>  <Number of H-Acceptors> (P7016350283)
3

>  <Number of Rotatable bonds> (P7016350283)
2

>  <CLogP> (P7016350283)
4.500000000000000e+000

>  <Number of Rings> (P7016350283)
4

>  <PSA> (P7016350283)
3.640000000000000e+001

$$$$

  -ISIS-  11102212342D

 23 26  0  0  0  0  0  0  0  0999 V2000
    4.2042    0.0500    0.0000 C   0  0  0  0  0  0  0  0  0  0  0  0
    3.4875    0.4583    0.0000 C   0  0  0  0  0  0  0  0  0  0  0  0
    3.4917   -1.1917    0.0000 N   0  0  0  0  0  0  0  0  0  0  0  0
    4.2042   -0.7792    0.0000 C   0  0  0  0  0  0  0  0  0  0  0  0
    2.7750    0.0458    0.0000 C   0  0  0  0  0  0  0  0  0  0  0  0
    5.6292    0.0583    0.0000 N   0  0  3  0  0  0  0  0  0  0  0  0
    2.7750   -0.7792    0.0000 C   0  0  0  0  0  0  0  0  0  0  0  0
    4.9042    0.4708    0.0000 C   0  0  0  0  0  0  0  0  0  0  0  0
    6.3292    0.4833    0.0000 C   0  0  0  0  0  0  0  0  0  0  0  0
    7.0542    0.0708    0.0000 C   0  0  0  0  0  0  0  0  0  0  0  0
    7.0542   -0.7500    0.0000 C   0  0  0  0  0  0  0  0  0  0  0  0
    5.6292   -0.7667    0.0000 C   0  0  0  0  0  0  0  0  0  0  0  0
    6.3500   -1.1667    0.0000 C   0  0  0  0  0  0  0  0  0  0  0  0
    3.4792    1.2833    0.0000 O   0  0  0  0  0  0  0  0  0  0  0  0
    2.0625    0.4583    0.0000 C   0  0  0  0  0  0  0  0  0  0  0  0
    4.9250   -1.1875    0.0000 C   0  0  0  0  0  0  0  0  0  0  0  0
    2.0625   -1.2000    0.0000 C   0  0  0  0  0  0  0  0  0  0  0  0
    7.7625    0.4875    0.0000 C   0  0  0  0  0  0  0  0  0  0  0  0
    7.7667   -1.1542    0.0000 C   0  0  0  0  0  0  0  0  0  0  0  0
    1.3500    0.0458    0.0000 C   0  0  0  0  0  0  0  0  0  0  0  0
    1.3542   -0.7875    0.0000 C   0  0  0  0  0  0  0  0  0  0  0  0
    8.4750    0.0833    0.0000 C   0  0  0  0  0  0  0  0  0  0  0  0
    8.4792   -0.7417    0.0000 C   0  0  0  0  0  0  0  0  0  0  0  0
  2  1  2  0  0  0  0
  3  4  2  0  0  0  0
  4  1  1  0  0  0  0
  5  2  1  0  0  0  0
  6  8  1  0  0  0  0
  7  3  1  0  0  0  0
  8  1  1  0  0  0  0
  9  6  1  0  0  0  0
 10  9  1  0  0  0  0
 11 13  1  0  0  0  0
 12  6  1  0  0  0  0
 13 12  1  0  0  0  0
 14  2  1  0  0  0  0
 15  5  2  0  0  0  0
 16  4  1  0  0  0  0
 17  7  2  0  0  0  0
 18 10  1  0  0  0  0
 19 11  1  0  0  0  0
 20 15  1  0  0  0  0
 21 17  1  0  0  0  0
 22 18  2  0  0  0  0
 23 19  2  0  0  0  0
  5  7  1  0  0  0  0
 11 10  2  0  0  0  0
 20 21  2  0  0  0  0
 23 22  1  0  0  0  0
M  END
>  <Code> (P7016350264)
P7016350264

>  <Number of H-Donors> (P7016350264)
1

>  <Number of H-Acceptors> (P7016350264)
3

>  <Number of Rotatable bonds> (P7016350264)
2

>  <CLogP> (P7016350264)
3.800000000000000e+000

>  <Number of Rings> (P7016350264)
4

>  <PSA> (P7016350264)
3.640000000000000e+001

$$$$

  -ISIS-  11102212342D

 26 28  0  0  0  0  0  0  0  0999 V2000
    6.2625   -1.2792    0.0000 C   0  0  0  0  0  0  0  0  0  0  0  0
    4.8375   -1.2875    0.0000 C   0  0  0  0  0  0  0  0  0  0  0  0
    5.5417   -0.8667    0.0000 C   0  0  0  0  0  0  0  0  0  0  0  0
    5.5542   -2.5250    0.0000 N   0  0  0  0  0  0  0  0  0  0  0  0
    6.2667   -2.1042    0.0000 C   0  0  0  0  0  0  0  0  0  0  0  0
    4.8375   -2.1125    0.0000 C   0  0  0  0  0  0  0  0  0  0  0  0
    4.1167   -0.8750    0.0000 C   0  0  0  0  0  0  0  0  0  0  0  0
    7.6917   -1.2667    0.0000 N   0  0  3  0  0  0  0  0  0  0  0  0
    6.9750   -0.8625    0.0000 C   0  0  0  0  0  0  0  0  0  0  0  0
    3.4042   -1.2875    0.0000 C   0  0  0  0  0  0  0  0  0  0  0  0
    9.1167   -2.0875    0.0000 N   0  0  3  0  0  0  0  0  0  0  0  0
    2.6917   -0.8792    0.0000 N   0  0  3  0  0  0  0  0  0  0  0  0
    4.1167   -2.5292    0.0000 C   0  0  0  0  0  0  0  0  0  0  0  0
    3.4042   -2.1167    0.0000 C   0  0  0  0  0  0  0  0  0  0  0  0
    5.5417   -0.0417    0.0000 O   0  0  0  0  0  0  0  0  0  0  0  0
    8.4000   -0.8542    0.0000 C   0  0  0  0  0  0  0  0  0  0  0  0
    7.6917   -2.0917    0.0000 C   0  0  0  0  0  0  0  0  0  0  0  0
    9.1167   -1.2542    0.0000 C   0  0  0  0  0  0  0  0  0  0  0  0
    8.4042   -2.5000    0.0000 C   0  0  0  0  0  0  0  0  0  0  0  0
    6.9875   -2.5125    0.0000 C   0  0  0  0  0  0  0  0  0  0  0  0
    9.8375   -2.4917    0.0000 C   0  0  0  0  0  0  0  0  0  0  0  0
    2.6917   -0.0542    0.0000 C   0  0  0  0  0  0  0  0  0  0  0  0
    1.9792   -1.2917    0.0000 C   0  0  0  0  0  0  0  0  0  0  0  0
    9.8375   -3.3167    0.0000 C   0  0  0  0  0  0  0  0  0  0  0  0
    1.2667   -0.8792    0.0000 C   0  0  0  0  0  0  0  0  0  0  0  0
    1.9792    0.3583    0.0000 C   0  0  0  0  0  0  0  0  0  0  0  0
  2  3  1  0  0  0  0
  3  1  2  0  0  0  0
  4  5  2  0  0  0  0
  5  1  1  0  0  0  0
  6  4  1  0  0  0  0
  7  2  2  0  0  0  0
  8  9  1  0  0  0  0
  9  1  1  0  0  0  0
 10  7  1  0  0  0  0
 11 19  1  0  0  0  0
 12 10  1  0  0  0  0
 13  6  2  0  0  0  0
 14 13  1  0  0  0  0
 15  3  1  0  0  0  0
 16  8  1  0  0  0  0
 17  8  1  0  0  0  0
 18 16  1  0  0  0  0
 19 17  1  0  0  0  0
 20  5  1  0  0  0  0
 21 11  1  0  0  0  0
 22 12  1  0  0  0  0
 23 12  1  0  0  0  0
 24 21  1  0  0  0  0
 25 23  1  0  0  0  0
 26 22  1  0  0  0  0
  6  2  1  0  0  0  0
 18 11  1  0  0  0  0
 14 10  2  0  0  0  0
M  END
>  <Code> (P7016350044)
P7016350044

>  <Number of H-Donors> (P7016350044)
1

>  <Number of H-Acceptors> (P7016350044)
5

>  <Number of Rotatable bonds> (P7016350044)
6

>  <CLogP> (P7016350044)
3.300000000000000e+000

>  <Number of Rings> (P7016350044)
3

>  <PSA> (P7016350044)
4.280000000000000e+001

$$$$

  -ISIS-  11102212342D

 24 27  0  0  0  0  0  0  0  0999 V2000
    2.7792   -1.7875    0.0000 C   0  0  0  0  0  0  0  0  0  0  0  0
    2.0667   -1.3917    0.0000 C   0  0  0  0  0  0  0  0  0  0  0  0
    1.3542   -1.8042    0.0000 C   0  0  0  0  0  0  0  0  0  0  0  0
    2.0667   -3.0417    0.0000 N   0  0  0  0  0  0  0  0  0  0  0  0
    2.7792   -2.6125    0.0000 C   0  0  0  0  0  0  0  0  0  0  0  0
    1.3542   -2.6292    0.0000 C   0  0  0  0  0  0  0  0  0  0  0  0
    4.2125   -1.7875    0.0000 N   0  0  3  0  0  0  0  0  0  0  0  0
    3.5042   -1.3750    0.0000 C   0  0  0  0  0  0  0  0  0  0  0  0
    4.9292   -1.3750    0.0000 C   0  0  0  0  0  0  0  0  0  0  0  0
    5.6417   -1.7917    0.0000 C   0  0  0  0  0  0  0  0  0  0  0  0
    0.6417   -1.3917    0.0000 C   0  0  0  0  0  0  0  0  0  0  0  0
    5.6292   -2.6250    0.0000 C   0  0  0  0  0  0  0  0  0  0  0  0
    0.6417   -3.0500    0.0000 C   0  0  0  0  0  0  0  0  0  0  0  0
    4.2042   -2.6125    0.0000 C   0  0  0  0  0  0  0  0  0  0  0  0
    4.9167   -3.0292    0.0000 C   0  0  0  0  0  0  0  0  0  0  0  0
    2.0625   -0.5667    0.0000 O   0  0  0  0  0  0  0  0  0  0  0  0
   -0.0708   -1.8125    0.0000 C   0  0  0  0  0  0  0  0  0  0  0  0
   -0.0708   -2.6375    0.0000 C   0  0  0  0  0  0  0  0  0  0  0  0
   -0.7833   -1.4000    0.0000 F   0  0  0  0  0  0  0  0  0  0  0  0
    3.5000   -3.0292    0.0000 C   0  0  0  0  0  0  0  0  0  0  0  0
    6.3542   -1.3875    0.0000 C   0  0  0  0  0  0  0  0  0  0  0  0
    6.3417   -3.0417    0.0000 C   0  0  0  0  0  0  0  0  0  0  0  0
    7.0667   -1.8042    0.0000 C   0  0  0  0  0  0  0  0  0  0  0  0
    7.0667   -2.6292    0.0000 C   0  0  0  0  0  0  0  0  0  0  0  0
  2  1  2  0  0  0  0
  3  2  1  0  0  0  0
  4  5  2  0  0  0  0
  5  1  1  0  0  0  0
  6  4  1  0  0  0  0
  7  8  1  0  0  0  0
  8  1  1  0  0  0  0
  9  7  1  0  0  0  0
 10  9  1  0  0  0  0
 11  3  2  0  0  0  0
 12 15  1  0  0  0  0
 13  6  2  0  0  0  0
 14  7  1  0  0  0  0
 15 14  1  0  0  0  0
 16  2  1  0  0  0  0
 17 11  1  0  0  0  0
 18 13  1  0  0  0  0
 19 17  1  0  0  0  0
 20  5  1  0  0  0  0
 21 10  2  0  0  0  0
 22 12  2  0  0  0  0
 23 21  1  0  0  0  0
 24 22  1  0  0  0  0
  3  6  1  0  0  0  0
 10 12  1  0  0  0  0
 17 18  2  0  0  0  0
 23 24  2  0  0  0  0
M  END
>  <Code> (P7016350006)
P7016350006

>  <Number of H-Donors> (P7016350006)
1

>  <Number of H-Acceptors> (P7016350006)
3

>  <Number of Rotatable bonds> (P7016350006)
2

>  <CLogP> (P7016350006)
4.000000000000000e+000

>  <Number of Rings> (P7016350006)
4

>  <PSA> (P7016350006)
3.640000000000000e+001

$$$$

  -ISIS-  11102212342D

 25 28  0  0  0  0  0  0  0  0999 V2000
    5.5667    1.4958    0.0000 C   0  0  0  0  0  0  0  0  0  0  0  0
    5.5667    2.2458    0.0000 C   0  0  0  0  0  0  0  0  0  0  0  0
    4.9167    1.1208    0.0000 C   0  0  0  0  0  0  0  0  0  0  0  0
    4.9167    2.6208    0.0000 N   0  0  0  0  0  0  0  0  0  0  0  0
    6.2792    1.2583    0.0000 C   0  0  0  0  0  0  0  0  0  0  0  0
    6.2792    2.4708    0.0000 S   0  0  0  0  0  0  0  0  0  0  0  0
    6.7167    1.8708    0.0000 C   0  0  0  0  0  0  0  0  0  0  0  0
    4.2667    1.4958    0.0000 N   0  0  3  0  0  0  0  0  0  0  0  0
    4.2667    2.2458    0.0000 C   0  0  0  0  0  0  0  0  0  0  0  0
    4.9167    0.3708    0.0000 O   0  0  0  0  0  0  0  0  0  0  0  0
    7.4667    1.8708    0.0000 C   0  0  0  0  0  0  0  0  0  0  0  0
    3.6167    1.1208    0.0000 C   0  0  0  0  0  0  0  0  0  0  0  0
    2.3167    1.1208    0.0000 O   0  0  0  0  0  0  0  0  0  0  0  0
    1.6667    1.4958    0.0000 C   0  0  0  0  0  0  0  0  0  0  0  0
    2.9667    1.4958    0.0000 C   0  0  0  0  0  0  0  0  0  0  0  0
    7.8417    1.2208    0.0000 C   0  0  0  0  0  0  0  0  0  0  0  0
    7.8417    2.5208    0.0000 C   0  0  0  0  0  0  0  0  0  0  0  0
    1.6667    2.2458    0.0000 C   0  0  0  0  0  0  0  0  0  0  0  0
    1.0167    1.1208    0.0000 C   0  0  0  0  0  0  0  0  0  0  0  0
    8.5917    2.5208    0.0000 C   0  0  0  0  0  0  0  0  0  0  0  0
    8.5917    1.2208    0.0000 C   0  0  0  0  0  0  0  0  0  0  0  0
    0.3667    1.4958    0.0000 C   0  0  0  0  0  0  0  0  0  0  0  0
    1.0167    2.6208    0.0000 C   0  0  0  0  0  0  0  0  0  0  0  0
    0.3667    2.2458    0.0000 C   0  0  0  0  0  0  0  0  0  0  0  0
    8.9667    1.8708    0.0000 C   0  0  0  0  0  0  0  0  0  0  0  0
  2  1  2  0  0  0  0
  3  1  1  0  0  0  0
  4  2  1  0  0  0  0
  5  1  1  0  0  0  0
  6  2  1  0  0  0  0
  7  5  2  0  0  0  0
  8  3  1  0  0  0  0
  9  8  1  0  0  0  0
 10  3  2  0  0  0  0
 11  7  1  0  0  0  0
 12  8  1  0  0  0  0
 13 15  1  0  0  0  0
 14 13  1  0  0  0  0
 15 12  1  0  0  0  0
 16 11  2  0  0  0  0
 17 11  1  0  0  0  0
 18 14  1  0  0  0  0
 19 14  2  0  0  0  0
 20 17  2  0  0  0  0
 21 16  1  0  0  0  0
 22 19  1  0  0  0  0
 23 18  2  0  0  0  0
 24 22  2  0  0  0  0
 25 20  1  0  0  0  0
  7  6  1  0  0  0  0
  4  9  2  0  0  0  0
 25 21  2  0  0  0  0
 24 23  1  0  0  0  0
M  END
>  <Code> (P7016270351)
P7016270351

>  <Number of H-Donors> (P7016270351)
0

>  <Number of H-Acceptors> (P7016270351)
3

>  <Number of Rotatable bonds> (P7016270351)
5

>  <CLogP> (P7016270351)
4.200000000000000e+000

>  <Number of Rings> (P7016270351)
4

>  <PSA> (P7016270351)
7.009999999999999e+001

$$$$

  -ISIS-  11102212342D

 31 34  0  0  0  0  0  0  0  0999 V2000
    3.7917    2.6625    0.0000 C   0  0  0  0  0  0  0  0  0  0  0  0
    3.7917    1.9125    0.0000 C   0  0  0  0  0  0  0  0  0  0  0  0
    4.4417    3.0458    0.0000 C   0  0  0  0  0  0  0  0  0  0  0  0
    5.0917    2.6625    0.0000 N   0  0  3  0  0  0  0  0  0  0  0  0
    4.4417    1.5375    0.0000 N   0  0  0  0  0  0  0  0  0  0  0  0
    3.0792    2.8958    0.0000 C   0  0  0  0  0  0  0  0  0  0  0  0
    3.0792    1.6833    0.0000 S   0  0  0  0  0  0  0  0  0  0  0  0
    2.6417    2.2875    0.0000 C   0  0  0  0  0  0  0  0  0  0  0  0
    5.0917    1.9125    0.0000 C   0  0  0  0  0  0  0  0  0  0  0  0
    8.3417    0.7875    0.0000 C   0  0  3  0  0  0  0  0  0  0  0  0
    7.6917    2.6625    0.0000 C   0  0  0  0  0  0  0  0  0  0  0  0
    6.3917    2.6625    0.0000 C   0  0  0  0  0  0  0  0  0  0  0  0
    7.0417    3.0458    0.0000 N   0  0  0  0  0  0  0  0  0  0  0  0
    8.3417    1.5375    0.0000 C   0  0  0  0  0  0  0  0  0  0  0  0
    5.7417    3.0458    0.0000 C   0  0  0  0  0  0  0  0  0  0  0  0
    7.6917    1.9125    0.0000 C   0  0  0  0  0  0  0  0  0  0  0  0
    4.4417    3.7958    0.0000 O   0  0  0  0  0  0  0  0  0  0  0  0
    8.3417    3.0458    0.0000 C   0  0  0  0  0  0  0  0  0  0  0  0
    1.8917    2.2875    0.0000 C   0  0  0  0  0  0  0  0  0  0  0  0
    6.3917    1.9125    0.0000 O   0  0  0  0  0  0  0  0  0  0  0  0
    8.9917    1.9125    0.0000 C   0  0  0  0  0  0  0  0  0  0  0  0
    8.9917    2.6625    0.0000 C   0  0  0  0  0  0  0  0  0  0  0  0
    9.0667    0.5958    0.0000 F   0  0  0  0  0  0  0  0  0  0  0  0
    7.5917    0.8583    0.0000 F   0  0  0  0  0  0  0  0  0  0  0  0
    8.2125    0.0500    0.0000 F   0  0  0  0  0  0  0  0  0  0  0  0
    8.3417    3.7958    0.0000 Cl  0  0  0  0  0  0  0  0  0  0  0  0
    1.5167    2.9375    0.0000 C   0  0  0  0  0  0  0  0  0  0  0  0
    1.5167    1.6375    0.0000 C   0  0  0  0  0  0  0  0  0  0  0  0
    0.7667    1.6375    0.0000 C   0  0  0  0  0  0  0  0  0  0  0  0
    0.7667    2.9375    0.0000 C   0  0  0  0  0  0  0  0  0  0  0  0
    0.3917    2.2875    0.0000 C   0  0  0  0  0  0  0  0  0  0  0  0
  2  1  2  0  0  0  0
  3  1  1  0  0  0  0
  4  3  1  0  0  0  0
  5  2  1  0  0  0  0
  6  1  1  0  0  0  0
  7  2  1  0  0  0  0
  8  6  2  0  0  0  0
  9  4  1  0  0  0  0
 10 14  1  0  0  0  0
 11 13  1  0  0  0  0
 12 15  1  0  0  0  0
 13 12  1  0  0  0  0
 14 16  2  0  0  0  0
 15  4  1  0  0  0  0
 16 11  1  0  0  0  0
 17  3  2  0  0  0  0
 18 11  2  0  0  0  0
 19  8  1  0  0  0  0
 20 12  2  0  0  0  0
 21 22  2  0  0  0  0
 22 18  1  0  0  0  0
 23 10  1  0  0  0  0
 24 10  1  0  0  0  0
 25 10  1  0  0  0  0
 26 18  1  0  0  0  0
 27 19  2  0  0  0  0
 28 19  1  0  0  0  0
 29 28  2  0  0  0  0
 30 27  1  0  0  0  0
 31 29  1  0  0  0  0
  8  7  1  0  0  0  0
  5  9  2  0  0  0  0
 30 31  2  0  0  0  0
 21 14  1  0  0  0  0
M  END
>  <Code> (P7016270226)
P7016270226

>  <Number of H-Donors> (P7016270226)
1

>  <Number of H-Acceptors> (P7016270226)
3

>  <Number of Rotatable bonds> (P7016270226)
5

>  <CLogP> (P7016270226)
4.800000000000000e+000

>  <Number of Rings> (P7016270226)
4

>  <PSA> (P7016270226)
9.000000000000000e+001

$$$$

  -ISIS-  11102212342D

 26 29  0  0  0  0  0  0  0  0999 V2000
    5.5667    1.4958    0.0000 C   0  0  0  0  0  0  0  0  0  0  0  0
    5.5667    2.2458    0.0000 C   0  0  0  0  0  0  0  0  0  0  0  0
    4.9167    1.1208    0.0000 C   0  0  0  0  0  0  0  0  0  0  0  0
    4.2667    1.4958    0.0000 N   0  0  3  0  0  0  0  0  0  0  0  0
    4.9167    2.6208    0.0000 N   0  0  0  0  0  0  0  0  0  0  0  0
    6.2792    1.2625    0.0000 C   0  0  0  0  0  0  0  0  0  0  0  0
    6.2792    2.4750    0.0000 S   0  0  0  0  0  0  0  0  0  0  0  0
    6.7167    1.8708    0.0000 C   0  0  0  0  0  0  0  0  0  0  0  0
    4.2667    2.2458    0.0000 C   0  0  0  0  0  0  0  0  0  0  0  0
    2.9667    1.4958    0.0000 C   0  0  0  0  0  0  0  0  0  0  0  0
    3.6167    1.1208    0.0000 C   0  0  0  0  0  0  0  0  0  0  0  0
    4.9167    0.3708    0.0000 O   0  0  0  0  0  0  0  0  0  0  0  0
    2.3167    1.1208    0.0000 N   0  0  0  0  0  0  0  0  0  0  0  0
    7.4667    1.8708    0.0000 C   0  0  0  0  0  0  0  0  0  0  0  0
    2.9667    2.2458    0.0000 O   0  0  0  0  0  0  0  0  0  0  0  0
    1.6667    1.4958    0.0000 C   0  0  0  0  0  0  0  0  0  0  0  0
    7.8417    1.2208    0.0000 C   0  0  0  0  0  0  0  0  0  0  0  0
    7.8417    2.5208    0.0000 C   0  0  0  0  0  0  0  0  0  0  0  0
    1.6667    2.2458    0.0000 C   0  0  0  0  0  0  0  0  0  0  0  0
    1.0167    1.1208    0.0000 C   0  0  0  0  0  0  0  0  0  0  0  0
    8.5917    2.5208    0.0000 C   0  0  0  0  0  0  0  0  0  0  0  0
    8.5917    1.2208    0.0000 C   0  0  0  0  0  0  0  0  0  0  0  0
    1.0167    2.6208    0.0000 C   0  0  0  0  0  0  0  0  0  0  0  0
    0.3667    1.4958    0.0000 C   0  0  0  0  0  0  0  0  0  0  0  0
    0.3667    2.2458    0.0000 C   0  0  0  0  0  0  0  0  0  0  0  0
    8.9667    1.8708    0.0000 C   0  0  0  0  0  0  0  0  0  0  0  0
  2  1  2  0  0  0  0
  3  1  1  0  0  0  0
  4  3  1  0  0  0  0
  5  2  1  0  0  0  0
  6  1  1  0  0  0  0
  7  2  1  0  0  0  0
  8  6  2  0  0  0  0
  9  4  1  0  0  0  0
 10 11  1  0  0  0  0
 11  4  1  0  0  0  0
 12  3  2  0  0  0  0
 13 10  1  0  0  0  0
 14  8  1  0  0  0  0
 15 10  2  0  0  0  0
 16 13  1  0  0  0  0
 17 14  2  0  0  0  0
 18 14  1  0  0  0  0
 19 16  2  0  0  0  0
 20 16  1  0  0  0  0
 21 18  2  0  0  0  0
 22 17  1  0  0  0  0
 23 19  1  0  0  0  0
 24 20  2  0  0  0  0
 25 24  1  0  0  0  0
 26 21  1  0  0  0  0
  8  7  1  0  0  0  0
  5  9  2  0  0  0  0
 22 26  2  0  0  0  0
 23 25  2  0  0  0  0
M  END
>  <Code> (P7016270205)
P7016270205

>  <Number of H-Donors> (P7016270205)
1

>  <Number of H-Acceptors> (P7016270205)
3

>  <Number of Rotatable bonds> (P7016270205)
4

>  <CLogP> (P7016270205)
3.200000000000000e+000

>  <Number of Rings> (P7016270205)
4

>  <PSA> (P7016270205)
9.000000000000000e+001

$$$$

  -ISIS-  11102212342D

 26 29  0  0  0  0  0  0  0  0999 V2000
   -0.7208   -2.5750    0.0000 C   0  0  0  0  0  0  0  0  0  0  0  0
   -0.2958   -3.3000    0.0000 C   0  0  0  0  0  0  0  0  0  0  0  0
   -0.3125   -1.8625    0.0000 C   0  0  0  0  0  0  0  0  0  0  0  0
    0.5167   -1.8417    0.0000 N   0  0  3  0  0  0  0  0  0  0  0  0
    0.5375   -3.2875    0.0000 N   0  0  0  0  0  0  0  0  0  0  0  0
   -1.5250   -2.7625    0.0000 C   0  0  0  0  0  0  0  0  0  0  0  0
   -0.8375   -3.9125    0.0000 S   0  0  0  0  0  0  0  0  0  0  0  0
   -1.6000   -3.5917    0.0000 C   0  0  0  0  0  0  0  0  0  0  0  0
    0.9375   -2.5625    0.0000 C   0  0  0  0  0  0  0  0  0  0  0  0
    0.9250   -1.1250    0.0000 C   0  0  0  0  0  0  0  0  0  0  0  0
    1.7500   -1.1167    0.0000 C   0  0  0  0  0  0  0  0  0  0  0  0
    3.4125   -2.5375    0.0000 C   0  0  0  0  0  0  0  0  0  0  0  0
   -0.7375   -1.1500    0.0000 O   0  0  0  0  0  0  0  0  0  0  0  0
    4.1000   -2.0875    0.0000 O   0  0  0  0  0  0  0  0  0  0  0  0
   -2.3500   -3.9500    0.0000 C   0  0  0  0  0  0  0  0  0  0  0  0
    2.1667   -1.8292    0.0000 N   0  0  0  0  0  0  0  0  0  0  0  0
    3.6292   -3.3292    0.0000 C   0  0  0  0  0  0  0  0  0  0  0  0
    4.7375   -2.6000    0.0000 C   0  0  0  0  0  0  0  0  0  0  0  0
    4.4417   -3.3667    0.0000 C   0  0  0  0  0  0  0  0  0  0  0  0
    2.1542   -0.4000    0.0000 O   0  0  0  0  0  0  0  0  0  0  0  0
    2.9917   -1.8250    0.0000 C   0  0  0  0  0  0  0  0  0  0  0  0
   -3.0333   -3.4667    0.0000 C   0  0  0  0  0  0  0  0  0  0  0  0
   -2.4208   -4.7667    0.0000 C   0  0  0  0  0  0  0  0  0  0  0  0
   -3.1625   -5.1250    0.0000 C   0  0  0  0  0  0  0  0  0  0  0  0
   -3.7833   -3.8250    0.0000 C   0  0  0  0  0  0  0  0  0  0  0  0
   -3.8500   -4.6542    0.0000 C   0  0  0  0  0  0  0  0  0  0  0  0
  2  1  2  0  0  0  0
  3  1  1  0  0  0  0
  4  3  1  0  0  0  0
  5  2  1  0  0  0  0
  6  1  1  0  0  0  0
  7  2  1  0  0  0  0
  8  6  2  0  0  0  0
  9  4  1  0  0  0  0
 10  4  1  0  0  0  0
 11 10  1  0  0  0  0
 12 21  1  0  0  0  0
 13  3  2  0  0  0  0
 14 12  1  0  0  0  0
 15  8  1  0  0  0  0
 16 11  1  0  0  0  0
 17 12  2  0  0  0  0
 18 14  1  0  0  0  0
 19 17  1  0  0  0  0
 20 11  2  0  0  0  0
 21 16  1  0  0  0  0
 22 15  2  0  0  0  0
 23 15  1  0  0  0  0
 24 23  2  0  0  0  0
 25 22  1  0  0  0  0
 26 24  1  0  0  0  0
  7  8  1  0  0  0  0
  9  5  2  0  0  0  0
 26 25  2  0  0  0  0
 18 19  2  0  0  0  0
M  END
>  <Code> (P7016270204)
P7016270204

>  <Number of H-Donors> (P7016270204)
1

>  <Number of H-Acceptors> (P7016270204)
3

>  <Number of Rotatable bonds> (P7016270204)
5

>  <CLogP> (P7016270204)
2.400000000000000e+000

>  <Number of Rings> (P7016270204)
4

>  <PSA> (P7016270204)
1.032000000000000e+002

$$$$

  -ISIS-  11102212342D

 26 28  0  0  0  0  0  0  0  0999 V2000
   -0.5208   -0.3792    0.0000 N   0  0  0  0  0  0  0  0  0  0  0  0
   -3.5833   -1.7542    0.0000 N   0  0  0  0  0  0  0  0  0  0  0  0
   -1.2833   -0.4000    0.0000 C   0  0  0  0  0  0  0  0  0  0  0  0
   -3.9708   -1.0917    0.0000 C   0  0  0  0  0  0  0  0  0  0  0  0
   -1.6375   -1.0542    0.0000 N   0  0  0  0  0  0  0  0  0  0  0  0
   -4.7208   -1.1000    0.0000 N   0  0  0  0  0  0  0  0  0  0  0  0
   -0.1208   -1.0292    0.0000 C   0  0  0  0  0  0  0  0  0  0  0  0
   -3.9583   -2.4167    0.0000 C   0  0  0  0  0  0  0  0  0  0  0  0
   -0.4750   -1.7000    0.0000 C   0  0  0  0  0  0  0  0  0  0  0  0
   -4.7208   -2.4250    0.0000 C   0  0  0  0  0  0  0  0  0  0  0  0
   -1.2458   -1.7125    0.0000 C   0  0  0  0  0  0  0  0  0  0  0  0
   -5.0958   -1.7542    0.0000 C   0  0  0  0  0  0  0  0  0  0  0  0
   -1.6708    0.2458    0.0000 S   0  0  0  0  0  0  0  0  0  0  0  0
   -3.5875   -0.4375    0.0000 S   0  0  0  0  0  0  0  0  0  0  0  0
   -1.6000   -2.3667    0.0000 O   0  0  0  0  0  0  0  0  0  0  0  0
   -5.8458   -1.7625    0.0000 O   0  0  0  0  0  0  0  0  0  0  0  0
   -3.5875    0.8833    0.0000 C   0  0  0  0  0  0  0  0  0  0  0  0
   -2.8333    0.8833    0.0000 C   0  0  0  0  0  0  0  0  0  0  0  0
   -2.4333    0.2375    0.0000 C   0  0  0  0  0  0  0  0  0  0  0  0
   -3.9625    0.2250    0.0000 C   0  0  0  0  0  0  0  0  0  0  0  0
    0.6417   -1.0125    0.0000 N   0  0  0  0  0  0  0  0  0  0  0  0
   -3.5750   -3.0750    0.0000 N   0  0  0  0  0  0  0  0  0  0  0  0
   -2.4583    1.5458    0.0000 C   0  0  0  0  0  0  0  0  0  0  0  0
   -3.9708    1.5333    0.0000 C   0  0  0  0  0  0  0  0  0  0  0  0
   -3.5958    2.1958    0.0000 C   0  0  0  0  0  0  0  0  0  0  0  0
   -2.8333    2.1958    0.0000 C   0  0  0  0  0  0  0  0  0  0  0  0
  2  4  2  0  0  0  0
  3  1  2  0  0  0  0
  4 14  1  0  0  0  0
  5  3  1  0  0  0  0
  6  4  1  0  0  0  0
  7  1  1  0  0  0  0
  8  2  1  0  0  0  0
  9  7  2  0  0  0  0
 10 12  1  0  0  0  0
 11  9  1  0  0  0  0
 12  6  1  0  0  0  0
 13  3  1  0  0  0  0
 14 20  1  0  0  0  0
 15 11  2  0  0  0  0
 16 12  2  0  0  0  0
 17 18  2  0  0  0  0
 18 19  1  0  0  0  0
 19 13  1  0  0  0  0
 20 17  1  0  0  0  0
 21  7  1  0  0  0  0
 22  8  1  0  0  0  0
 23 18  1  0  0  0  0
 24 17  1  0  0  0  0
 25 26  1  0  0  0  0
 26 23  2  0  0  0  0
  5 11  1  0  0  0  0
 25 24  2  0  0  0  0
 10  8  2  0  0  0  0
M  END
>  <Code> (P7016000361)
P7016000361

>  <Number of H-Donors> (P7016000361)
4

>  <Number of H-Acceptors> (P7016000361)
8

>  <Number of Rotatable bonds> (P7016000361)
6

>  <CLogP> (P7016000361)
1.800000000000000e+000

>  <Number of Rings> (P7016000361)
3

>  <PSA> (P7016000361)
1.856000000000000e+002

$$$$

  -ISIS-  11102212342D

 24 26  0  0  0  0  0  0  0  0999 V2000
   -0.6458  -24.6917    0.0000 C   0  0  0  0  0  0  0  0  0  0  0  0
   -0.2208  -25.4167    0.0000 C   0  0  0  0  0  0  0  0  0  0  0  0
    0.5917  -23.9667    0.0000 N   0  0  3  0  0  0  0  0  0  0  0  0
    1.0042  -24.6792    0.0000 N   0  0  0  0  0  0  0  0  0  0  0  0
   -0.2458  -23.9792    0.0000 C   0  0  0  0  0  0  0  0  0  0  0  0
    0.6042  -25.4042    0.0000 N   0  0  0  0  0  0  0  0  0  0  0  0
   -1.4583  -24.8792    0.0000 C   0  0  0  0  0  0  0  0  0  0  0  0
   -0.7708  -26.0292    0.0000 S   0  0  0  0  0  0  0  0  0  0  0  0
   -1.5458  -25.7042    0.0000 C   0  0  0  0  0  0  0  0  0  0  0  0
    0.9917  -23.2417    0.0000 C   0  0  0  0  0  0  0  0  0  0  0  0
    1.8167  -23.2292    0.0000 C   0  0  0  0  0  0  0  0  0  0  0  0
   -0.6708  -23.2667    0.0000 O   0  0  0  0  0  0  0  0  0  0  0  0
   -2.2583  -26.1292    0.0000 C   0  0  0  0  0  0  0  0  0  0  0  0
    2.2167  -22.5167    0.0000 O   0  0  0  0  0  0  0  0  0  0  0  0
    2.2292  -23.9417    0.0000 O   0  0  0  0  0  0  0  0  0  0  0  0
    4.3042  -24.6417    0.0000 O   0  0  0  0  0  0  0  0  0  0  0  0
   -2.9750  -25.7250    0.0000 C   0  0  0  0  0  0  0  0  0  0  0  0
   -2.2458  -26.9500    0.0000 C   0  0  0  0  0  0  0  0  0  0  0  0
    3.0542  -23.9417    0.0000 C   0  0  0  0  0  0  0  0  0  0  0  0
    3.4792  -24.6542    0.0000 C   0  0  0  0  0  0  0  0  0  0  0  0
    4.7292  -25.3542    0.0000 C   0  0  0  0  0  0  0  0  0  0  0  0
   -2.9500  -27.3667    0.0000 C   0  0  0  0  0  0  0  0  0  0  0  0
   -3.6833  -26.1417    0.0000 C   0  0  0  0  0  0  0  0  0  0  0  0
   -3.6750  -26.9667    0.0000 C   0  0  0  0  0  0  0  0  0  0  0  0
  2  1  2  0  0  0  0
  3  5  1  0  0  0  0
  4  3  1  0  0  0  0
  5  1  1  0  0  0  0
  6  2  1  0  0  0  0
  7  1  1  0  0  0  0
  8  2  1  0  0  0  0
  9  7  2  0  0  0  0
 10  3  1  0  0  0  0
 11 10  1  0  0  0  0
 12  5  2  0  0  0  0
 13  9  1  0  0  0  0
 14 11  2  0  0  0  0
 15 11  1  0  0  0  0
 16 20  1  0  0  0  0
 17 13  2  0  0  0  0
 18 13  1  0  0  0  0
 19 15  1  0  0  0  0
 20 19  1  0  0  0  0
 21 16  1  0  0  0  0
 22 18  2  0  0  0  0
 23 17  1  0  0  0  0
 24 22  1  0  0  0  0
  8  9  1  0  0  0  0
  4  6  2  0  0  0  0
 23 24  2  0  0  0  0
M  END
>  <Code> (P7015880278)
P7015880278

>  <Number of H-Donors> (P7015880278)
0

>  <Number of H-Acceptors> (P7015880278)
6

>  <Number of Rotatable bonds> (P7015880278)
7

>  <CLogP> (P7015880278)
3.000000000000000e+000

>  <Number of Rings> (P7015880278)
3

>  <PSA> (P7015880278)
1.088000000000000e+002

$$$$

  -ISIS-  11102212342D

 28 31  0  0  0  0  0  0  0  0999 V2000
   -2.4583   -3.2917    0.0000 C   0  0  0  0  0  0  0  0  0  0  0  0
   -2.0333   -4.0167    0.0000 C   0  0  0  0  0  0  0  0  0  0  0  0
   -1.2333   -2.5667    0.0000 N   0  0  3  0  0  0  0  0  0  0  0  0
   -0.8083   -3.2917    0.0000 N   0  0  0  0  0  0  0  0  0  0  0  0
   -2.0583   -2.5917    0.0000 C   0  0  0  0  0  0  0  0  0  0  0  0
   -1.2083   -4.0167    0.0000 N   0  0  0  0  0  0  0  0  0  0  0  0
   -3.2833   -3.4917    0.0000 C   0  0  0  0  0  0  0  0  0  0  0  0
   -2.5833   -4.6292    0.0000 S   0  0  0  0  0  0  0  0  0  0  0  0
   -3.3458   -4.3042    0.0000 C   0  0  0  0  0  0  0  0  0  0  0  0
   -0.8458   -1.8417    0.0000 C   0  0  0  0  0  0  0  0  0  0  0  0
   -0.0208   -1.8292    0.0000 C   0  0  0  0  0  0  0  0  0  0  0  0
   -2.4833   -1.8667    0.0000 O   0  0  0  0  0  0  0  0  0  0  0  0
   -4.0958   -4.6542    0.0000 C   0  0  0  0  0  0  0  0  0  0  0  0
    0.3792   -1.1042    0.0000 O   0  0  0  0  0  0  0  0  0  0  0  0
    0.4167   -2.5292    0.0000 N   0  0  0  0  0  0  0  0  0  0  0  0
    1.2292   -2.5042    0.0000 C   0  0  0  0  0  0  0  0  0  0  0  0
    2.4542   -1.7667    0.0000 C   0  0  0  0  0  0  0  0  0  0  0  0
   -4.7708   -4.1875    0.0000 C   0  0  0  0  0  0  0  0  0  0  0  0
   -4.1625   -5.4750    0.0000 C   0  0  0  0  0  0  0  0  0  0  0  0
    1.6292   -1.7792    0.0000 C   0  0  0  0  0  0  0  0  0  0  0  0
    2.8792   -2.4667    0.0000 C   0  0  0  0  0  0  0  0  0  0  0  0
    2.8417   -1.0417    0.0000 C   0  0  0  0  0  0  0  0  0  0  0  0
   -4.9083   -5.8292    0.0000 C   0  0  0  0  0  0  0  0  0  0  0  0
   -5.5208   -4.5292    0.0000 C   0  0  0  0  0  0  0  0  0  0  0  0
    3.7042   -2.4542    0.0000 C   0  0  0  0  0  0  0  0  0  0  0  0
    3.6667   -1.0167    0.0000 C   0  0  0  0  0  0  0  0  0  0  0  0
    4.1042   -1.7292    0.0000 C   0  0  0  0  0  0  0  0  0  0  0  0
   -5.5958   -5.3542    0.0000 C   0  0  0  0  0  0  0  0  0  0  0  0
  2  1  2  0  0  0  0
  3  5  1  0  0  0  0
  4  3  1  0  0  0  0
  5  1  1  0  0  0  0
  6  2  1  0  0  0  0
  7  1  1  0  0  0  0
  8  2  1  0  0  0  0
  9  7  2  0  0  0  0
 10  3  1  0  0  0  0
 11 10  1  0  0  0  0
 12  5  2  0  0  0  0
 13  9  1  0  0  0  0
 14 11  2  0  0  0  0
 15 11  1  0  0  0  0
 16 15  1  0  0  0  0
 17 20  1  0  0  0  0
 18 13  2  0  0  0  0
 19 13  1  0  0  0  0
 20 16  1  0  0  0  0
 21 17  2  0  0  0  0
 22 17  1  0  0  0  0
 23 19  2  0  0  0  0
 24 18  1  0  0  0  0
 25 21  1  0  0  0  0
 26 22  2  0  0  0  0
 27 26  1  0  0  0  0
 28 23  1  0  0  0  0
  9  8  1  0  0  0  0
  6  4  2  0  0  0  0
 24 28  2  0  0  0  0
 25 27  2  0  0  0  0
M  END
>  <Code> (P7015870187)
P7015870187

>  <Number of H-Donors> (P7015870187)
1

>  <Number of H-Acceptors> (P7015870187)
4

>  <Number of Rotatable bonds> (P7015870187)
6

>  <CLogP> (P7015870187)
4.400000000000000e+000

>  <Number of Rings> (P7015870187)
4

>  <PSA> (P7015870187)
1.024000000000000e+002

$$$$

  -ISIS-  11102212342D

 27 30  0  0  0  0  0  0  0  0999 V2000
   -1.8583   -3.2750    0.0000 C   0  0  0  0  0  0  0  0  0  0  0  0
   -1.4333   -3.9917    0.0000 C   0  0  0  0  0  0  0  0  0  0  0  0
   -0.6333   -2.5417    0.0000 N   0  0  3  0  0  0  0  0  0  0  0  0
   -0.2083   -3.2625    0.0000 N   0  0  0  0  0  0  0  0  0  0  0  0
   -1.4583   -2.5542    0.0000 C   0  0  0  0  0  0  0  0  0  0  0  0
   -0.6083   -3.9792    0.0000 N   0  0  0  0  0  0  0  0  0  0  0  0
   -2.6708   -3.4625    0.0000 C   0  0  0  0  0  0  0  0  0  0  0  0
   -1.9833   -4.6125    0.0000 S   0  0  0  0  0  0  0  0  0  0  0  0
   -2.7458   -4.2917    0.0000 C   0  0  0  0  0  0  0  0  0  0  0  0
   -0.2208   -1.8250    0.0000 C   0  0  0  0  0  0  0  0  0  0  0  0
    0.6042   -1.8167    0.0000 C   0  0  0  0  0  0  0  0  0  0  0  0
   -1.8833   -1.8500    0.0000 O   0  0  0  0  0  0  0  0  0  0  0  0
   -3.4958   -4.6500    0.0000 C   0  0  0  0  0  0  0  0  0  0  0  0
    1.0167   -2.5292    0.0000 N   0  0  0  0  0  0  0  0  0  0  0  0
    1.0042   -1.1000    0.0000 O   0  0  0  0  0  0  0  0  0  0  0  0
    1.8417   -2.5250    0.0000 C   0  0  0  0  0  0  0  0  0  0  0  0
    2.2667   -3.2375    0.0000 C   0  0  0  0  0  0  0  0  0  0  0  0
   -4.1750   -4.1667    0.0000 C   0  0  0  0  0  0  0  0  0  0  0  0
   -3.5583   -5.4667    0.0000 C   0  0  0  0  0  0  0  0  0  0  0  0
    1.8542   -3.9500    0.0000 C   0  0  0  0  0  0  0  0  0  0  0  0
    3.0917   -3.2250    0.0000 C   0  0  0  0  0  0  0  0  0  0  0  0
   -4.3083   -5.8250    0.0000 C   0  0  0  0  0  0  0  0  0  0  0  0
   -4.9250   -4.5250    0.0000 C   0  0  0  0  0  0  0  0  0  0  0  0
    2.2792   -4.6625    0.0000 C   0  0  0  0  0  0  0  0  0  0  0  0
    3.5042   -3.9292    0.0000 C   0  0  0  0  0  0  0  0  0  0  0  0
    3.1042   -4.6500    0.0000 C   0  0  0  0  0  0  0  0  0  0  0  0
   -4.9958   -5.3542    0.0000 C   0  0  0  0  0  0  0  0  0  0  0  0
  2  1  2  0  0  0  0
  3  5  1  0  0  0  0
  4  3  1  0  0  0  0
  5  1  1  0  0  0  0
  6  2  1  0  0  0  0
  7  1  1  0  0  0  0
  8  2  1  0  0  0  0
  9  7  2  0  0  0  0
 10  3  1  0  0  0  0
 11 10  1  0  0  0  0
 12  5  2  0  0  0  0
 13  9  1  0  0  0  0
 14 11  1  0  0  0  0
 15 11  2  0  0  0  0
 16 14  1  0  0  0  0
 17 16  1  0  0  0  0
 18 13  2  0  0  0  0
 19 13  1  0  0  0  0
 20 17  2  0  0  0  0
 21 17  1  0  0  0  0
 22 19  2  0  0  0  0
 23 18  1  0  0  0  0
 24 20  1  0  0  0  0
 25 21  2  0  0  0  0
 26 25  1  0  0  0  0
 27 22  1  0  0  0  0
  9  8  1  0  0  0  0
  6  4  2  0  0  0  0
 23 27  2  0  0  0  0
 24 26  2  0  0  0  0
M  END
>  <Code> (P7015870153)
P7015870153

>  <Number of H-Donors> (P7015870153)
1

>  <Number of H-Acceptors> (P7015870153)
4

>  <Number of Rotatable bonds> (P7015870153)
5

>  <CLogP> (P7015870153)
4.100000000000000e+000

>  <Number of Rings> (P7015870153)
4

>  <PSA> (P7015870153)
1.024000000000000e+002

$$$$

  -ISIS-  11102212342D

 26 29  0  0  0  0  0  0  0  0999 V2000
   -1.8458   -3.2750    0.0000 C   0  0  0  0  0  0  0  0  0  0  0  0
   -1.4208   -3.9917    0.0000 C   0  0  0  0  0  0  0  0  0  0  0  0
   -0.6208   -2.5417    0.0000 N   0  0  3  0  0  0  0  0  0  0  0  0
   -0.1958   -3.2625    0.0000 N   0  0  0  0  0  0  0  0  0  0  0  0
   -1.4458   -2.5542    0.0000 C   0  0  0  0  0  0  0  0  0  0  0  0
   -0.5958   -3.9792    0.0000 N   0  0  0  0  0  0  0  0  0  0  0  0
   -2.6583   -3.4625    0.0000 C   0  0  0  0  0  0  0  0  0  0  0  0
   -1.9708   -4.6125    0.0000 S   0  0  0  0  0  0  0  0  0  0  0  0
   -2.7333   -4.2917    0.0000 C   0  0  0  0  0  0  0  0  0  0  0  0
   -0.2083   -1.8250    0.0000 C   0  0  0  0  0  0  0  0  0  0  0  0
    0.6167   -1.8167    0.0000 C   0  0  0  0  0  0  0  0  0  0  0  0
    1.0292   -2.5292    0.0000 N   0  0  0  0  0  0  0  0  0  0  0  0
   -1.8708   -1.8500    0.0000 O   0  0  0  0  0  0  0  0  0  0  0  0
   -3.4833   -4.6500    0.0000 C   0  0  0  0  0  0  0  0  0  0  0  0
    1.0167   -1.1000    0.0000 O   0  0  0  0  0  0  0  0  0  0  0  0
    1.8542   -2.5292    0.0000 C   0  0  0  0  0  0  0  0  0  0  0  0
   -4.1625   -4.1667    0.0000 C   0  0  0  0  0  0  0  0  0  0  0  0
   -3.5458   -5.4667    0.0000 C   0  0  0  0  0  0  0  0  0  0  0  0
    2.2667   -3.2375    0.0000 C   0  0  0  0  0  0  0  0  0  0  0  0
    2.2667   -1.8167    0.0000 C   0  0  0  0  0  0  0  0  0  0  0  0
   -4.2958   -5.8250    0.0000 C   0  0  0  0  0  0  0  0  0  0  0  0
   -4.9125   -4.5250    0.0000 C   0  0  0  0  0  0  0  0  0  0  0  0
    3.0917   -3.2375    0.0000 C   0  0  0  0  0  0  0  0  0  0  0  0
    3.0792   -1.8125    0.0000 C   0  0  0  0  0  0  0  0  0  0  0  0
    3.4917   -2.5250    0.0000 C   0  0  0  0  0  0  0  0  0  0  0  0
   -4.9833   -5.3542    0.0000 C   0  0  0  0  0  0  0  0  0  0  0  0
  2  1  2  0  0  0  0
  3  5  1  0  0  0  0
  4  3  1  0  0  0  0
  5  1  1  0  0  0  0
  6  2  1  0  0  0  0
  7  1  1  0  0  0  0
  8  2  1  0  0  0  0
  9  7  2  0  0  0  0
 10  3  1  0  0  0  0
 11 10  1  0  0  0  0
 12 11  1  0  0  0  0
 13  5  2  0  0  0  0
 14  9  1  0  0  0  0
 15 11  2  0  0  0  0
 16 12  1  0  0  0  0
 17 14  2  0  0  0  0
 18 14  1  0  0  0  0
 19 16  2  0  0  0  0
 20 16  1  0  0  0  0
 21 18  2  0  0  0  0
 22 17  1  0  0  0  0
 23 19  1  0  0  0  0
 24 20  2  0  0  0  0
 25 24  1  0  0  0  0
 26 21  1  0  0  0  0
  9  8  1  0  0  0  0
  6  4  2  0  0  0  0
 22 26  2  0  0  0  0
 23 25  2  0  0  0  0
M  END
>  <Code> (P7015870152)
P7015870152

>  <Number of H-Donors> (P7015870152)
1

>  <Number of H-Acceptors> (P7015870152)
4

>  <Number of Rotatable bonds> (P7015870152)
4

>  <CLogP> (P7015870152)
4.100000000000000e+000

>  <Number of Rings> (P7015870152)
4

>  <PSA> (P7015870152)
1.024000000000000e+002

$$$$

  -ISIS-  11102212342D

 26 29  0  0  0  0  0  0  0  0999 V2000
   -1.9083   -3.2750    0.0000 C   0  0  0  0  0  0  0  0  0  0  0  0
   -1.4833   -4.0000    0.0000 C   0  0  0  0  0  0  0  0  0  0  0  0
   -0.6708   -2.5417    0.0000 N   0  0  3  0  0  0  0  0  0  0  0  0
   -0.2500   -3.2625    0.0000 N   0  0  0  0  0  0  0  0  0  0  0  0
   -1.5000   -2.5625    0.0000 C   0  0  0  0  0  0  0  0  0  0  0  0
   -0.6500   -3.9875    0.0000 N   0  0  0  0  0  0  0  0  0  0  0  0
   -2.7125   -3.4625    0.0000 C   0  0  0  0  0  0  0  0  0  0  0  0
   -2.0250   -4.6125    0.0000 S   0  0  0  0  0  0  0  0  0  0  0  0
   -2.7875   -4.2917    0.0000 C   0  0  0  0  0  0  0  0  0  0  0  0
   -0.2625   -1.8250    0.0000 C   0  0  0  0  0  0  0  0  0  0  0  0
    0.5625   -1.8167    0.0000 C   0  0  0  0  0  0  0  0  0  0  0  0
    2.2250   -3.2375    0.0000 C   0  0  0  0  0  0  0  0  0  0  0  0
   -1.9250   -1.8500    0.0000 O   0  0  0  0  0  0  0  0  0  0  0  0
    2.9125   -2.7875    0.0000 O   0  0  0  0  0  0  0  0  0  0  0  0
   -3.5375   -4.6500    0.0000 C   0  0  0  0  0  0  0  0  0  0  0  0
    0.9792   -2.5292    0.0000 N   0  0  0  0  0  0  0  0  0  0  0  0
    2.4417   -4.0292    0.0000 C   0  0  0  0  0  0  0  0  0  0  0  0
    3.5500   -3.3000    0.0000 C   0  0  0  0  0  0  0  0  0  0  0  0
    0.9667   -1.1000    0.0000 O   0  0  0  0  0  0  0  0  0  0  0  0
    3.2542   -4.0667    0.0000 C   0  0  0  0  0  0  0  0  0  0  0  0
    1.8042   -2.5250    0.0000 C   0  0  0  0  0  0  0  0  0  0  0  0
   -4.2208   -4.1667    0.0000 C   0  0  0  0  0  0  0  0  0  0  0  0
   -3.6083   -5.4667    0.0000 C   0  0  0  0  0  0  0  0  0  0  0  0
   -4.3500   -5.8250    0.0000 C   0  0  0  0  0  0  0  0  0  0  0  0
   -4.9708   -4.5250    0.0000 C   0  0  0  0  0  0  0  0  0  0  0  0
   -5.0375   -5.3542    0.0000 C   0  0  0  0  0  0  0  0  0  0  0  0
  2  1  2  0  0  0  0
  3  5  1  0  0  0  0
  4  3  1  0  0  0  0
  5  1  1  0  0  0  0
  6  2  1  0  0  0  0
  7  1  1  0  0  0  0
  8  2  1  0  0  0  0
  9  7  2  0  0  0  0
 10  3  1  0  0  0  0
 11 10  1  0  0  0  0
 12 21  1  0  0  0  0
 13  5  2  0  0  0  0
 14 12  1  0  0  0  0
 15  9  1  0  0  0  0
 16 11  1  0  0  0  0
 17 12  2  0  0  0  0
 18 14  1  0  0  0  0
 19 11  2  0  0  0  0
 20 17  1  0  0  0  0
 21 16  1  0  0  0  0
 22 15  2  0  0  0  0
 23 15  1  0  0  0  0
 24 23  2  0  0  0  0
 25 22  1  0  0  0  0
 26 24  1  0  0  0  0
  8  9  1  0  0  0  0
  4  6  2  0  0  0  0
 26 25  2  0  0  0  0
 18 20  2  0  0  0  0
M  END
>  <Code> (P7015870151)
P7015870151

>  <Number of H-Donors> (P7015870151)
1

>  <Number of H-Acceptors> (P7015870151)
4

>  <Number of Rotatable bonds> (P7015870151)
5

>  <CLogP> (P7015870151)
3.300000000000000e+000

>  <Number of Rings> (P7015870151)
4

>  <PSA> (P7015870151)
1.155000000000000e+002

$$$$

  -ISIS-  11102212342D

 30 34  0  0  0  0  0  0  0  0999 V2000
    1.1750   -3.6500    0.0000 N   0  0  3  0  0  0  0  0  0  0  0  0
    1.6417   -2.9875    0.0000 C   0  0  0  0  0  0  0  0  0  0  0  0
    1.1667   -2.3292    0.0000 C   0  0  0  0  0  0  0  0  0  0  0  0
    0.4042   -3.4000    0.0000 C   0  0  0  0  0  0  0  0  0  0  0  0
    0.4042   -2.5750    0.0000 C   0  0  0  0  0  0  0  0  0  0  0  0
   -0.3125   -3.8125    0.0000 N   0  0  0  0  0  0  0  0  0  0  0  0
   -0.3083   -2.1542    0.0000 N   0  0  0  0  0  0  0  0  0  0  0  0
    1.4250   -1.5500    0.0000 C   0  0  0  0  0  0  0  0  0  0  0  0
    1.4292   -4.4292    0.0000 C   0  0  0  0  0  0  0  0  0  0  0  0
   -1.0250   -3.3917    0.0000 C   0  0  0  0  0  0  0  0  0  0  0  0
   -1.0208   -2.5667    0.0000 C   0  0  0  0  0  0  0  0  0  0  0  0
    0.8792   -5.0417    0.0000 C   0  0  0  0  0  0  0  0  0  0  0  0
    2.2292   -1.3792    0.0000 N   0  0  0  0  0  0  0  0  0  0  0  0
    2.4417   -3.2000    0.0000 N   0  0  0  0  0  0  0  0  0  0  0  0
    1.0542   -5.8500    0.0000 O   0  0  0  0  0  0  0  0  0  0  0  0
    0.8750   -0.9292    0.0000 O   0  0  0  0  0  0  0  0  0  0  0  0
    0.0500   -4.9625    0.0000 C   0  0  0  0  0  0  0  0  0  0  0  0
    0.3375   -6.2542    0.0000 C   0  0  0  0  0  0  0  0  0  0  0  0
   -0.2750   -5.7042    0.0000 C   0  0  0  0  0  0  0  0  0  0  0  0
    2.7792   -1.9917    0.0000 C   0  0  0  0  0  0  0  0  0  0  0  0
    3.5917   -1.8250    0.0000 C   0  0  0  0  0  0  0  0  0  0  0  0
   -1.7458   -3.8042    0.0000 C   0  0  0  0  0  0  0  0  0  0  0  0
   -1.7458   -2.1500    0.0000 C   0  0  0  0  0  0  0  0  0  0  0  0
    3.8417   -1.0417    0.0000 C   0  0  0  0  0  0  0  0  0  0  0  0
    4.1375   -2.4417    0.0000 C   0  0  0  0  0  0  0  0  0  0  0  0
   -2.4583   -2.5625    0.0000 C   0  0  0  0  0  0  0  0  0  0  0  0
   -2.4583   -3.3917    0.0000 C   0  0  0  0  0  0  0  0  0  0  0  0
    4.9417   -2.2750    0.0000 C   0  0  0  0  0  0  0  0  0  0  0  0
    4.6417   -0.8667    0.0000 C   0  0  0  0  0  0  0  0  0  0  0  0
    5.2042   -1.4875    0.0000 C   0  0  0  0  0  0  0  0  0  0  0  0
  2  1  1  0  0  0  0
  3  2  2  0  0  0  0
  4  1  1  0  0  0  0
  5  4  1  0  0  0  0
  6  4  2  0  0  0  0
  7  5  2  0  0  0  0
  8  3  1  0  0  0  0
  9  1  1  0  0  0  0
 10  6  1  0  0  0  0
 11 10  1  0  0  0  0
 12  9  1  0  0  0  0
 13  8  1  0  0  0  0
 14  2  1  0  0  0  0
 15 12  1  0  0  0  0
 16  8  2  0  0  0  0
 17 12  2  0  0  0  0
 18 15  1  0  0  0  0
 19 17  1  0  0  0  0
 20 13  1  0  0  0  0
 21 20  1  0  0  0  0
 22 10  2  0  0  0  0
 23 11  2  0  0  0  0
 24 21  1  0  0  0  0
 25 21  2  0  0  0  0
 26 27  2  0  0  0  0
 27 22  1  0  0  0  0
 28 25  1  0  0  0  0
 29 24  2  0  0  0  0
 30 28  2  0  0  0  0
  3  5  1  0  0  0  0
 18 19  2  0  0  0  0
 11  7  1  0  0  0  0
 23 26  1  0  0  0  0
 30 29  1  0  0  0  0
M  END
>  <Code> (P7015810026)
P7015810026

>  <Number of H-Donors> (P7015810026)
2

>  <Number of H-Acceptors> (P7015810026)
4

>  <Number of Rotatable bonds> (P7015810026)
5

>  <CLogP> (P7015810026)
3.400000000000000e+000

>  <Number of Rings> (P7015810026)
5

>  <PSA> (P7015810026)
9.900000000000000e+001

$$$$

  -ISIS-  11102212342D

 16 16  0  0  0  0  0  0  0  0999 V2000
    5.3250   -7.7250    0.0000 C   0  0  0  0  0  0  0  0  0  0  0  0
    4.6125   -8.1375    0.0000 N   0  0  0  0  0  0  0  0  0  0  0  0
    5.3250   -6.9000    0.0000 N   0  0  0  0  0  0  0  0  0  0  0  0
    6.0417   -8.1417    0.0000 N   0  0  0  0  0  0  0  0  0  0  0  0
    3.8917   -7.7250    0.0000 C   0  0  0  0  0  0  0  0  0  0  0  0
    4.6125   -6.4875    0.0000 C   0  0  0  0  0  0  0  0  0  0  0  0
    3.8917   -6.9000    0.0000 C   0  0  0  0  0  0  0  0  0  0  0  0
    6.7625   -7.7292    0.0000 C   0  0  3  0  0  0  0  0  0  0  0  0
    6.2917   -4.5917    0.0000 Cl  0  0  0  0  0  0  0  0  0  0  0  0
    4.6125   -5.6625    0.0000 C   0  0  0  0  0  0  0  0  0  0  0  0
    3.1750   -8.1375    0.0000 C   0  0  0  0  0  0  0  0  0  0  0  0
    6.7625   -6.9000    0.0000 C   0  0  0  0  0  0  0  0  0  0  0  0
    7.4792   -8.1417    0.0000 C   0  0  0  0  0  0  0  0  0  0  0  0
    8.1917   -7.7292    0.0000 C   0  0  0  0  0  0  0  0  0  0  0  0
    7.4750   -6.4875    0.0000 C   0  0  0  0  0  0  0  0  0  0  0  0
    8.1917   -6.9000    0.0000 C   0  0  0  0  0  0  0  0  0  0  0  0
  2  1  2  0  0  0  0
  3  1  1  0  0  0  0
  4  1  1  0  0  0  0
  5  2  1  0  0  0  0
  6  3  2  0  0  0  0
  7  6  1  0  0  0  0
  8  4  1  0  0  0  0
 10  6  1  0  0  0  0
 11  5  1  0  0  0  0
 12  8  1  0  0  0  0
 13  8  1  0  0  0  0
 14 13  1  0  0  0  0
 15 12  1  0  0  0  0
 16 15  1  0  0  0  0
  7  5  2  0  0  0  0
 16 14  1  0  0  0  0
M  END
>  <Code> (P7015550286)
P7015550286

>  <Saltdata> (P7015550286)
HCl

>  <Number of H-Donors> (P7015550286)
1

>  <Number of H-Acceptors> (P7015550286)
3

>  <Number of Rotatable bonds> (P7015550286)
2

>  <CLogP> (P7015550286)
2.700000000000000e+000

>  <Number of Rings> (P7015550286)
2

>  <PSA> (P7015550286)
3.780000000000000e+001

$$$$

  -ISIS-  11102212342D

 20 21  0  0  0  0  0  0  0  0999 V2000
    2.3667   -2.0792    0.0000 N   0  0  0  0  0  0  0  0  0  0  0  0
    2.3667   -2.9125    0.0000 C   0  0  0  0  0  0  0  0  0  0  0  0
    1.6500   -1.6667    0.0000 C   0  0  0  0  0  0  0  0  0  0  0  0
    1.6500   -3.3250    0.0000 N   0  0  0  0  0  0  0  0  0  0  0  0
    0.9375   -2.0792    0.0000 C   0  0  0  0  0  0  0  0  0  0  0  0
    0.9292   -2.9042    0.0000 C   0  0  0  0  0  0  0  0  0  0  0  0
    3.0792   -3.3250    0.0000 C   0  0  0  0  0  0  0  0  0  0  0  0
    3.0792   -4.1500    0.0000 O   0  0  0  0  0  0  0  0  0  0  0  0
    1.6375   -0.8042    0.0000 N   0  0  0  0  0  0  0  0  0  0  0  0
    3.8000   -2.9292    0.0000 N   0  0  0  0  0  0  0  0  0  0  0  0
    0.2167   -1.6667    0.0000 C   0  0  0  0  0  0  0  0  0  0  0  0
    3.7750   -0.3917    0.0000 O   0  0  0  0  0  0  0  0  0  0  0  0
    5.9292   -3.3917    0.0000 O   0  0  0  0  0  0  0  0  0  0  0  0
    0.2167   -3.3250    0.0000 C   0  0  0  0  0  0  0  0  0  0  0  0
    2.3500   -0.3917    0.0000 C   0  0  0  0  0  0  0  0  0  0  0  0
    4.5042   -3.3625    0.0000 C   0  0  0  0  0  0  0  0  0  0  0  0
    5.2292   -2.9667    0.0000 C   0  0  0  0  0  0  0  0  0  0  0  0
    3.0625   -0.8042    0.0000 C   0  0  0  0  0  0  0  0  0  0  0  0
   -0.4958   -2.0875    0.0000 C   0  0  0  0  0  0  0  0  0  0  0  0
   -0.4958   -2.9125    0.0000 C   0  0  0  0  0  0  0  0  0  0  0  0
  2  1  1  0  0  0  0
  3  1  2  0  0  0  0
  4  2  2  0  0  0  0
  5  3  1  0  0  0  0
  6  5  1  0  0  0  0
  7  2  1  0  0  0  0
  8  7  2  0  0  0  0
  9  3  1  0  0  0  0
 10  7  1  0  0  0  0
 11  5  2  0  0  0  0
 12 18  1  0  0  0  0
 13 17  1  0  0  0  0
 14  6  2  0  0  0  0
 15  9  1  0  0  0  0
 16 10  1  0  0  0  0
 17 16  1  0  0  0  0
 18 15  1  0  0  0  0
 19 11  1  0  0  0  0
 20 19  2  0  0  0  0
  6  4  1  0  0  0  0
 14 20  1  0  0  0  0
M  END
>  <Code> (P7015070029)
P7015070029

>  <Number of H-Donors> (P7015070029)
4

>  <Number of H-Acceptors> (P7015070029)
6

>  <Number of Rotatable bonds> (P7015070029)
6

>  <CLogP> (P7015070029)
-5.000000000000000e-001

>  <Number of Rings> (P7015070029)
2

>  <PSA> (P7015070029)
1.074000000000000e+002

$$$$

  -ISIS-  11102212342D

 28 31  0  0  0  0  0  0  0  0999 V2000
    2.3667   -2.0792    0.0000 N   0  0  0  0  0  0  0  0  0  0  0  0
    2.3667   -2.9125    0.0000 C   0  0  0  0  0  0  0  0  0  0  0  0
    1.6500   -1.6667    0.0000 C   0  0  0  0  0  0  0  0  0  0  0  0
    1.6500   -3.3250    0.0000 N   0  0  0  0  0  0  0  0  0  0  0  0
    0.9375   -2.0792    0.0000 C   0  0  0  0  0  0  0  0  0  0  0  0
    3.0792   -3.3250    0.0000 C   0  0  0  0  0  0  0  0  0  0  0  0
    0.9292   -2.9042    0.0000 C   0  0  0  0  0  0  0  0  0  0  0  0
    1.6500   -0.8292    0.0000 N   0  0  0  0  0  0  0  0  0  0  0  0
    3.8042   -2.9250    0.0000 N   0  0  0  0  0  0  0  0  0  0  0  0
    3.0792   -4.1500    0.0000 O   0  0  0  0  0  0  0  0  0  0  0  0
    0.9375   -0.4167    0.0000 C   0  0  0  0  0  0  0  0  0  0  0  0
    4.5125   -3.3417    0.0000 C   0  0  0  0  0  0  0  0  0  0  0  0
    0.2167   -1.6667    0.0000 C   0  0  0  0  0  0  0  0  0  0  0  0
    0.9375    0.4083    0.0000 C   0  0  0  0  0  0  0  0  0  0  0  0
    5.2292   -2.9417    0.0000 C   0  0  0  0  0  0  0  0  0  0  0  0
    0.2167   -3.3250    0.0000 C   0  0  0  0  0  0  0  0  0  0  0  0
    0.2167    0.8208    0.0000 C   0  0  0  0  0  0  0  0  0  0  0  0
    1.6542    0.8208    0.0000 C   0  0  0  0  0  0  0  0  0  0  0  0
    5.9417   -3.3667    0.0000 C   0  0  0  0  0  0  0  0  0  0  0  0
    5.2417   -2.1250    0.0000 C   0  0  0  0  0  0  0  0  0  0  0  0
   -0.4958   -2.0875    0.0000 C   0  0  0  0  0  0  0  0  0  0  0  0
   -0.4958   -2.9125    0.0000 C   0  0  0  0  0  0  0  0  0  0  0  0
    1.6542    1.6458    0.0000 C   0  0  0  0  0  0  0  0  0  0  0  0
    6.6625   -2.9667    0.0000 C   0  0  0  0  0  0  0  0  0  0  0  0
    5.9625   -1.7167    0.0000 C   0  0  0  0  0  0  0  0  0  0  0  0
    0.2167    1.6458    0.0000 C   0  0  0  0  0  0  0  0  0  0  0  0
    0.9292    2.0583    0.0000 C   0  0  0  0  0  0  0  0  0  0  0  0
    6.6750   -2.1417    0.0000 C   0  0  0  0  0  0  0  0  0  0  0  0
  2  1  1  0  0  0  0
  3  1  2  0  0  0  0
  4  2  2  0  0  0  0
  5  3  1  0  0  0  0
  6  2  1  0  0  0  0
  7  5  1  0  0  0  0
  8  3  1  0  0  0  0
  9  6  1  0  0  0  0
 10  6  2  0  0  0  0
 11  8  1  0  0  0  0
 12  9  1  0  0  0  0
 13  5  2  0  0  0  0
 14 11  1  0  0  0  0
 15 12  1  0  0  0  0
 16  7  2  0  0  0  0
 17 14  1  0  0  0  0
 18 14  2  0  0  0  0
 19 15  2  0  0  0  0
 20 15  1  0  0  0  0
 21 13  1  0  0  0  0
 22 21  2  0  0  0  0
 23 18  1  0  0  0  0
 24 19  1  0  0  0  0
 25 20  2  0  0  0  0
 26 17  2  0  0  0  0
 27 23  2  0  0  0  0
 28 25  1  0  0  0  0
  4  7  1  0  0  0  0
 16 22  1  0  0  0  0
 26 27  1  0  0  0  0
 28 24  2  0  0  0  0
M  END
>  <Code> (P7015070024)
P7015070024

>  <Number of H-Donors> (P7015070024)
2

>  <Number of H-Acceptors> (P7015070024)
4

>  <Number of Rotatable bonds> (P7015070024)
6

>  <CLogP> (P7015070024)
3.700000000000000e+000

>  <Number of Rings> (P7015070024)
4

>  <PSA> (P7015070024)
6.690000000000001e+001

$$$$

  -ISIS-  11102212342D

 26 29  0  0  0  0  0  0  0  0999 V2000
    2.7875   -2.3000    0.0000 C   0  0  0  0  0  0  0  0  0  0  0  0
    3.5042   -2.7167    0.0000 N   0  0  0  0  0  0  0  0  0  0  0  0
    3.5042   -3.5417    0.0000 C   0  0  0  0  0  0  0  0  0  0  0  0
    2.7875   -3.9542    0.0000 N   0  0  0  0  0  0  0  0  0  0  0  0
    2.0667   -2.7167    0.0000 C   0  0  0  0  0  0  0  0  0  0  0  0
    4.2167   -3.9542    0.0000 C   0  0  0  0  0  0  0  0  0  0  0  0
    2.0667   -3.5417    0.0000 C   0  0  0  0  0  0  0  0  0  0  0  0
    2.7875   -1.4667    0.0000 N   0  0  0  0  0  0  0  0  0  0  0  0
    4.9375   -3.5417    0.0000 N   0  0  0  0  0  0  0  0  0  0  0  0
    4.2167   -4.7792    0.0000 O   0  0  0  0  0  0  0  0  0  0  0  0
    3.5042   -1.0542    0.0000 C   0  0  0  0  0  0  0  0  0  0  0  0
    5.6417   -3.9750    0.0000 C   0  0  0  0  0  0  0  0  0  0  0  0
    1.3542   -2.3042    0.0000 C   0  0  0  0  0  0  0  0  0  0  0  0
    1.3542   -3.9542    0.0000 C   0  0  0  0  0  0  0  0  0  0  0  0
    4.2167   -1.4667    0.0000 C   0  0  0  0  0  0  0  0  0  0  0  0
    6.3667   -3.5792    0.0000 C   0  0  0  0  0  0  0  0  0  0  0  0
    3.5042   -0.2292    0.0000 C   0  0  0  0  0  0  0  0  0  0  0  0
    5.6250   -4.8000    0.0000 C   0  0  0  0  0  0  0  0  0  0  0  0
    0.6417   -2.7167    0.0000 C   0  0  0  0  0  0  0  0  0  0  0  0
    0.6417   -3.5417    0.0000 C   0  0  0  0  0  0  0  0  0  0  0  0
    7.0667   -4.0042    0.0000 C   0  0  0  0  0  0  0  0  0  0  0  0
    4.9292   -1.0542    0.0000 C   0  0  0  0  0  0  0  0  0  0  0  0
    4.2167    0.1833    0.0000 C   0  0  0  0  0  0  0  0  0  0  0  0
    6.3292   -5.2292    0.0000 C   0  0  0  0  0  0  0  0  0  0  0  0
    7.0542   -4.8250    0.0000 C   0  0  0  0  0  0  0  0  0  0  0  0
    4.9292   -0.2292    0.0000 C   0  0  0  0  0  0  0  0  0  0  0  0
  2  1  2  0  0  0  0
  3  2  1  0  0  0  0
  4  7  1  0  0  0  0
  5  1  1  0  0  0  0
  6  3  1  0  0  0  0
  7  5  1  0  0  0  0
  8  1  1  0  0  0  0
  9  6  1  0  0  0  0
 10  6  2  0  0  0  0
 11  8  1  0  0  0  0
 12  9  1  0  0  0  0
 13  5  2  0  0  0  0
 14  7  2  0  0  0  0
 15 11  1  0  0  0  0
 16 12  2  0  0  0  0
 17 11  2  0  0  0  0
 18 12  1  0  0  0  0
 19 13  1  0  0  0  0
 20 19  2  0  0  0  0
 21 16  1  0  0  0  0
 22 15  2  0  0  0  0
 23 17  1  0  0  0  0
 24 18  2  0  0  0  0
 25 24  1  0  0  0  0
 26 23  2  0  0  0  0
  3  4  2  0  0  0  0
 14 20  1  0  0  0  0
 22 26  1  0  0  0  0
 25 21  2  0  0  0  0
M  END
>  <Code> (P7015070001)
P7015070001

>  <Number of H-Donors> (P7015070001)
2

>  <Number of H-Acceptors> (P7015070001)
4

>  <Number of Rotatable bonds> (P7015070001)
4

>  <CLogP> (P7015070001)
3.700000000000000e+000

>  <Number of Rings> (P7015070001)
4

>  <PSA> (P7015070001)
6.690000000000001e+001

$$$$

  -ISIS-  11102212342D

 25 27  0  0  0  0  0  0  0  0999 V2000
    3.1625   -3.6542    0.0000 C   0  0  0  0  0  0  0  0  0  0  0  0
    2.4417   -3.2500    0.0000 C   0  0  0  0  0  0  0  0  0  0  0  0
    1.7292   -3.6667    0.0000 C   0  0  0  0  0  0  0  0  0  0  0  0
    1.7292   -4.5000    0.0000 C   0  0  0  0  0  0  0  0  0  0  0  0
    2.4417   -4.9125    0.0000 N   0  0  0  0  0  0  0  0  0  0  0  0
    3.8792   -3.2417    0.0000 C   0  0  0  0  0  0  0  0  0  0  0  0
    3.1625   -4.4917    0.0000 C   0  0  0  0  0  0  0  0  0  0  0  0
    2.4375   -2.4167    0.0000 N   0  0  0  0  0  0  0  0  0  0  0  0
    1.0125   -4.9125    0.0000 C   0  0  0  0  0  0  0  0  0  0  0  0
    1.0125   -3.2542    0.0000 C   0  0  0  0  0  0  0  0  0  0  0  0
    0.2917   -4.5000    0.0000 C   0  0  0  0  0  0  0  0  0  0  0  0
    3.8750   -2.4125    0.0000 O   0  0  0  0  0  0  0  0  0  0  0  0
    0.2917   -3.6667    0.0000 C   0  0  0  0  0  0  0  0  0  0  0  0
    1.7167   -2.0125    0.0000 C   0  0  0  0  0  0  0  0  0  0  0  0
    4.5917   -3.6542    0.0000 O   0  0  0  0  0  0  0  0  0  0  0  0
    1.7167   -1.1792    0.0000 C   0  0  0  0  0  0  0  0  0  0  0  0
    1.0167   -5.7417    0.0000 C   0  0  0  0  0  0  0  0  0  0  0  0
   -0.4208   -4.9125    0.0000 C   0  0  0  0  0  0  0  0  0  0  0  0
    4.6042   -4.4792    0.0000 C   0  0  0  0  0  0  0  0  0  0  0  0
    1.0042   -0.7667    0.0000 C   0  0  0  0  0  0  0  0  0  0  0  0
    2.4375   -0.7667    0.0000 C   0  0  0  0  0  0  0  0  0  0  0  0
    5.3250   -4.8875    0.0000 C   0  0  0  0  0  0  0  0  0  0  0  0
    2.4417    0.0583    0.0000 C   0  0  0  0  0  0  0  0  0  0  0  0
    1.0042    0.0583    0.0000 C   0  0  0  0  0  0  0  0  0  0  0  0
    1.7167    0.4708    0.0000 C   0  0  0  0  0  0  0  0  0  0  0  0
  2  1  2  0  0  0  0
  3  2  1  0  0  0  0
  4  5  1  0  0  0  0
  5  7  2  0  0  0  0
  6  1  1  0  0  0  0
  7  1  1  0  0  0  0
  8  2  1  0  0  0  0
  9  4  2  0  0  0  0
 10  3  2  0  0  0  0
 11  9  1  0  0  0  0
 12  6  2  0  0  0  0
 13 10  1  0  0  0  0
 14  8  1  0  0  0  0
 15  6  1  0  0  0  0
 16 14  1  0  0  0  0
 17  9  1  0  0  0  0
 18 11  1  0  0  0  0
 19 15  1  0  0  0  0
 20 16  1  0  0  0  0
 21 16  2  0  0  0  0
 22 19  1  0  0  0  0
 23 21  1  0  0  0  0
 24 20  2  0  0  0  0
 25 23  2  0  0  0  0
  4  3  1  0  0  0  0
 11 13  2  0  0  0  0
 24 25  1  0  0  0  0
M  END
>  <Code> (P7014650202)
P7014650202

>  <Number of H-Donors> (P7014650202)
1

>  <Number of H-Acceptors> (P7014650202)
4

>  <Number of Rotatable bonds> (P7014650202)
6

>  <CLogP> (P7014650202)
4.600000000000000e+000

>  <Number of Rings> (P7014650202)
3

>  <PSA> (P7014650202)
5.119999999999999e+001

$$$$

  -ISIS-  11102212342D

 26 30  0  0  0  0  0  0  0  0999 V2000
    1.6750    2.2583    0.0000 C   0  0  0  0  0  0  0  0  0  0  0  0
    2.3167    1.8833    0.0000 C   0  0  0  0  0  0  0  0  0  0  0  0
    2.5750    3.0708    0.0000 C   0  0  0  0  0  0  0  0  0  0  0  0
    2.8792    2.3833    0.0000 C   0  0  0  0  0  0  0  0  0  0  0  0
    1.8292    2.9958    0.0000 S   0  0  0  0  0  0  0  0  0  0  0  0
    5.6042    0.8333    0.0000 N   0  0  0  0  0  0  0  0  0  0  0  0
    4.9167    1.1333    0.0000 C   0  0  0  0  0  0  0  0  0  0  0  0
    5.0000    1.8833    0.0000 N   0  0  0  0  0  0  0  0  0  0  0  0
    2.3167    1.1333    0.0000 C   0  0  0  0  0  0  0  0  0  0  0  0
    1.0250    1.8833    0.0000 N   0  0  0  0  0  0  0  0  0  0  0  0
    1.6750    0.7583    0.0000 N   0  0  0  0  0  0  0  0  0  0  0  0
    6.1042    1.3875    0.0000 C   0  0  0  0  0  0  0  0  0  0  0  0
    5.7292    2.0333    0.0000 C   0  0  0  0  0  0  0  0  0  0  0  0
    3.6292    2.3083    0.0000 C   0  0  0  0  0  0  0  0  0  0  0  0
    1.0250    1.1333    0.0000 C   0  0  0  0  0  0  0  0  0  0  0  0
    3.0167    3.6750    0.0000 C   0  0  0  0  0  0  0  0  0  0  0  0
    4.2667    0.7583    0.0000 C   0  0  0  0  0  0  0  0  0  0  0  0
    2.9750    0.7583    0.0000 N   0  0  0  0  0  0  0  0  0  0  0  0
    3.6250    1.1333    0.0000 C   0  0  0  0  0  0  0  0  0  0  0  0
    4.0667    2.9125    0.0000 C   0  0  0  0  0  0  0  0  0  0  0  0
    3.7625    3.6083    0.0000 C   0  0  3  0  0  0  0  0  0  0  0  0
    6.8542    1.3875    0.0000 C   0  0  0  0  0  0  0  0  0  0  0  0
    6.1042    2.6833    0.0000 C   0  0  0  0  0  0  0  0  0  0  0  0
    4.2042    4.2000    0.0000 C   0  0  0  0  0  0  0  0  0  0  0  0
    6.8542    2.6833    0.0000 C   0  0  0  0  0  0  0  0  0  0  0  0
    7.2292    2.0333    0.0000 C   0  0  0  0  0  0  0  0  0  0  0  0
  2  1  2  0  0  0  0
  3  5  1  0  0  0  0
  4  2  1  0  0  0  0
  5  1  1  0  0  0  0
  6  7  2  0  0  0  0
  7 17  1  0  0  0  0
  8  7  1  0  0  0  0
  9  2  1  0  0  0  0
 10  1  1  0  0  0  0
 11 15  1  0  0  0  0
 12  6  1  0  0  0  0
 13  8  1  0  0  0  0
 14  4  1  0  0  0  0
 15 10  2  0  0  0  0
 16  3  1  0  0  0  0
 17 19  1  0  0  0  0
 18  9  1  0  0  0  0
 19 18  1  0  0  0  0
 20 14  1  0  0  0  0
 21 16  1  0  0  0  0
 22 12  1  0  0  0  0
 23 13  1  0  0  0  0
 24 21  1  0  0  0  0
 25 23  2  0  0  0  0
 26 22  2  0  0  0  0
  3  4  2  0  0  0  0
  9 11  2  0  0  0  0
 20 21  1  0  0  0  0
 13 12  2  0  0  0  0
 26 25  1  0  0  0  0
M  END
>  <Code> (P7014320479)
P7014320479

>  <Number of H-Donors> (P7014320479)
2

>  <Number of H-Acceptors> (P7014320479)
4

>  <Number of Rotatable bonds> (P7014320479)
4

>  <CLogP> (P7014320479)
4.200000000000000e+000

>  <Number of Rings> (P7014320479)
5

>  <PSA> (P7014320479)
9.470000000000000e+001

$$$$

  -ISIS-  11102212342D

 24 26  0  0  0  0  0  0  0  0999 V2000
    5.8875   -4.3167    0.0000 C   0  0  0  0  0  0  0  0  0  0  0  0
    5.1542   -5.4375    0.0000 C   0  0  0  0  0  0  0  0  0  0  0  0
    5.1167   -4.6167    0.0000 C   0  0  0  0  0  0  0  0  0  0  0  0
    6.4000   -4.9667    0.0000 C   0  0  0  0  0  0  0  0  0  0  0  0
    5.9417   -5.6500    0.0000 S   0  0  0  0  0  0  0  0  0  0  0  0
    6.1875   -3.5542    0.0000 C   0  0  0  0  0  0  0  0  0  0  0  0
    7.2167   -4.8417    0.0000 N   0  0  0  0  0  0  0  0  0  0  0  0
    7.0042   -3.4292    0.0000 N   0  0  0  0  0  0  0  0  0  0  0  0
    4.5042   -5.9542    0.0000 C   0  0  0  0  0  0  0  0  0  0  0  0
    5.6667   -2.9125    0.0000 N   0  0  0  0  0  0  0  0  0  0  0  0
    7.5167   -4.0667    0.0000 C   0  0  0  0  0  0  0  0  0  0  0  0
    4.6292   -6.7667    0.0000 O   0  0  0  0  0  0  0  0  0  0  0  0
    5.9667   -2.1417    0.0000 C   0  0  0  0  0  0  0  0  0  0  0  0
    4.4167   -4.1625    0.0000 C   0  0  0  0  0  0  0  0  0  0  0  0
    3.7417   -5.6542    0.0000 O   0  0  0  0  0  0  0  0  0  0  0  0
    6.5667   -0.6042    0.0000 C   0  0  0  0  0  0  0  0  0  0  0  0
    6.7792   -2.0125    0.0000 C   0  0  0  0  0  0  0  0  0  0  0  0
    5.4500   -1.5000    0.0000 C   0  0  0  0  0  0  0  0  0  0  0  0
    5.7500   -0.7292    0.0000 C   0  0  0  0  0  0  0  0  0  0  0  0
    7.0792   -1.2417    0.0000 C   0  0  0  0  0  0  0  0  0  0  0  0
    6.8667    0.1708    0.0000 O   0  0  0  0  0  0  0  0  0  0  0  0
    3.6167   -4.8375    0.0000 C   0  0  0  0  0  0  0  0  0  0  0  0
    6.3500    0.8083    0.0000 C   0  0  0  0  0  0  0  0  0  0  0  0
    2.8500   -4.5292    0.0000 C   0  0  0  0  0  0  0  0  0  0  0  0
  2  3  2  0  0  0  0
  3  1  1  0  0  0  0
  4  1  2  0  0  0  0
  5  4  1  0  0  0  0
  6  1  1  0  0  0  0
  7  4  1  0  0  0  0
  8  6  2  0  0  0  0
  9  2  1  0  0  0  0
 10  6  1  0  0  0  0
 11  8  1  0  0  0  0
 12  9  2  0  0  0  0
 13 10  1  0  0  0  0
 14  3  1  0  0  0  0
 15  9  1  0  0  0  0
 16 19  1  0  0  0  0
 17 13  2  0  0  0  0
 18 13  1  0  0  0  0
 19 18  2  0  0  0  0
 20 17  1  0  0  0  0
 21 16  1  0  0  0  0
 22 15  1  0  0  0  0
 23 21  1  0  0  0  0
 24 22  1  0  0  0  0
  2  5  1  0  0  0  0
  7 11  2  0  0  0  0
 16 20  2  0  0  0  0
M  END
>  <Code> (P7014320060)
P7014320060

>  <Number of H-Donors> (P7014320060)
1

>  <Number of H-Acceptors> (P7014320060)
6

>  <Number of Rotatable bonds> (P7014320060)
6

>  <CLogP> (P7014320060)
3.500000000000000e+000

>  <Number of Rings> (P7014320060)
3

>  <PSA> (P7014320060)
1.016000000000000e+002

$$$$

  -ISIS-  11102212342D

 28 30  0  0  0  0  0  0  0  0999 V2000
    8.6667   -4.5667    0.0000 C   0  0  0  0  0  0  0  0  0  0  0  0
    7.9542   -4.9792    0.0000 C   0  0  0  0  0  0  0  0  0  0  0  0
    7.2542   -4.5792    0.0000 C   0  0  0  0  0  0  0  0  0  0  0  0
   10.1167   -5.3667    0.0000 C   0  0  0  0  0  0  0  0  0  0  0  0
    7.2417   -3.7667    0.0000 C   0  0  0  0  0  0  0  0  0  0  0  0
    9.3917   -4.9667    0.0000 O   0  0  0  0  0  0  0  0  0  0  0  0
    8.6667   -3.7667    0.0000 C   0  0  0  0  0  0  0  0  0  0  0  0
    7.9417   -3.3542    0.0000 O   0  0  0  0  0  0  0  0  0  0  0  0
   10.8250   -4.9417    0.0000 C   0  0  0  0  0  0  0  0  0  0  0  0
   11.5500   -5.3417    0.0000 C   0  0  0  0  0  0  0  0  0  0  0  0
    4.3792   -2.1417    0.0000 C   0  0  0  0  0  0  0  0  0  0  0  0
    6.5292   -3.3667    0.0000 C   0  0  0  0  0  0  0  0  0  0  0  0
    6.5292   -4.9792    0.0000 C   0  0  0  0  0  0  0  0  0  0  0  0
    5.1167   -3.3792    0.0000 O   0  0  0  0  0  0  0  0  0  0  0  0
   10.1292   -6.2042    0.0000 C   0  0  0  0  0  0  0  0  0  0  0  0
    5.1042   -2.5542    0.0000 C   0  0  3  0  0  0  0  0  0  0  0  0
    5.8292   -3.7667    0.0000 C   0  0  0  0  0  0  0  0  0  0  0  0
   11.5667   -6.1792    0.0000 C   0  0  0  0  0  0  0  0  0  0  0  0
    7.9542   -5.7792    0.0000 O   0  0  0  0  0  0  0  0  0  0  0  0
    4.3667   -1.3167    0.0000 O   0  0  0  0  0  0  0  0  0  0  0  0
   10.8500   -6.6042    0.0000 C   0  0  0  0  0  0  0  0  0  0  0  0
    5.8292   -4.5792    0.0000 C   0  0  0  0  0  0  0  0  0  0  0  0
    3.6792   -2.5667    0.0000 O   0  0  0  0  0  0  0  0  0  0  0  0
   12.2625   -4.9167    0.0000 C   0  0  0  0  0  0  0  0  0  0  0  0
   10.8125   -4.1167    0.0000 C   0  0  0  0  0  0  0  0  0  0  0  0
    5.8167   -2.1292    0.0000 C   0  0  0  0  0  0  0  0  0  0  0  0
   10.8625   -7.4375    0.0000 C   0  0  0  0  0  0  0  0  0  0  0  0
    2.9542   -2.1667    0.0000 C   0  0  0  0  0  0  0  0  0  0  0  0
  2  1  1  0  0  0  0
  3  2  1  0  0  0  0
  4  6  1  0  0  0  0
  5  8  1  0  0  0  0
  6  1  1  0  0  0  0
  7  1  2  0  0  0  0
  8  7  1  0  0  0  0
  9  4  1  0  0  0  0
 10  9  2  0  0  0  0
 11 16  1  0  0  0  0
 12  5  2  0  0  0  0
 13  3  2  0  0  0  0
 14 17  1  0  0  0  0
 15  4  2  0  0  0  0
 16 14  1  0  0  0  0
 17 12  1  0  0  0  0
 18 21  2  0  0  0  0
 19  2  2  0  0  0  0
 20 11  2  0  0  0  0
 21 15  1  0  0  0  0
 22 13  1  0  0  0  0
 23 11  1  0  0  0  0
 24 10  1  0  0  0  0
 25  9  1  0  0  0  0
 26 16  1  0  0  0  0
 27 21  1  0  0  0  0
 28 23  1  0  0  0  0
  3  5  1  0  0  0  0
 22 17  2  0  0  0  0
 10 18  1  0  0  0  0
M  END
>  <Code> (P7014260781)
P7014260781

>  <Number of H-Donors> (P7014260781)
0

>  <Number of H-Acceptors> (P7014260781)
6

>  <Number of Rotatable bonds> (P7014260781)
6

>  <CLogP> (P7014260781)
4.300000000000000e+000

>  <Number of Rings> (P7014260781)
3

>  <PSA> (P7014260781)
7.109999999999998e+001

$$$$

  -ISIS-  11102212342D

 26 28  0  0  0  0  0  0  0  0999 V2000
   -0.3583   -5.1375    0.0000 C   0  0  0  0  0  0  0  0  0  0  0  0
    0.0667   -5.8542    0.0000 C   0  0  0  0  0  0  0  0  0  0  0  0
   -1.1708   -5.3250    0.0000 C   0  0  0  0  0  0  0  0  0  0  0  0
   -1.2458   -6.1417    0.0000 C   0  0  0  0  0  0  0  0  0  0  0  0
   -0.4833   -6.4750    0.0000 S   0  0  0  0  0  0  0  0  0  0  0  0
    0.0417   -4.4167    0.0000 C   0  0  0  0  0  0  0  0  0  0  0  0
    0.8667   -4.4042    0.0000 N   0  0  3  0  0  0  0  0  0  0  0  0
    0.8917   -5.8417    0.0000 N   0  0  0  0  0  0  0  0  0  0  0  0
    1.2917   -5.1250    0.0000 C   0  0  0  0  0  0  0  0  0  0  0  0
   -1.9583   -6.5542    0.0000 C   0  0  0  0  0  0  0  0  0  0  0  0
    2.1042   -3.6750    0.0000 C   0  0  0  0  0  0  0  0  0  0  0  0
    1.2792   -3.6875    0.0000 C   0  0  0  0  0  0  0  0  0  0  0  0
   -0.3833   -3.7125    0.0000 O   0  0  0  0  0  0  0  0  0  0  0  0
    2.5042   -2.9542    0.0000 N   0  0  0  0  0  0  0  0  0  0  0  0
   -1.9458   -7.3792    0.0000 O   0  0  0  0  0  0  0  0  0  0  0  0
    2.5292   -4.3792    0.0000 O   0  0  0  0  0  0  0  0  0  0  0  0
   -1.7958   -4.7792    0.0000 C   0  0  0  0  0  0  0  0  0  0  0  0
   -2.6708   -6.1542    0.0000 O   0  0  0  0  0  0  0  0  0  0  0  0
    3.3292   -2.9375    0.0000 C   0  0  3  0  0  0  0  0  0  0  0  0
   -3.3833   -6.5750    0.0000 C   0  0  0  0  0  0  0  0  0  0  0  0
    3.7250   -2.2167    0.0000 C   0  0  0  0  0  0  0  0  0  0  0  0
    3.7500   -3.6500    0.0000 C   0  0  0  0  0  0  0  0  0  0  0  0
   -4.1000   -6.1667    0.0000 C   0  0  0  0  0  0  0  0  0  0  0  0
    4.5542   -2.2042    0.0000 C   0  0  0  0  0  0  0  0  0  0  0  0
    4.5667   -3.6375    0.0000 C   0  0  0  0  0  0  0  0  0  0  0  0
    4.9750   -2.9167    0.0000 C   0  0  0  0  0  0  0  0  0  0  0  0
  2  1  2  0  0  0  0
  3  1  1  0  0  0  0
  4  3  2  0  0  0  0
  5  2  1  0  0  0  0
  6  1  1  0  0  0  0
  7  6  1  0  0  0  0
  8  2  1  0  0  0  0
  9  7  1  0  0  0  0
 10  4  1  0  0  0  0
 11 12  1  0  0  0  0
 12  7  1  0  0  0  0
 13  6  2  0  0  0  0
 14 11  1  0  0  0  0
 15 10  2  0  0  0  0
 16 11  2  0  0  0  0
 17  3  1  0  0  0  0
 18 10  1  0  0  0  0
 19 14  1  0  0  0  0
 20 18  1  0  0  0  0
 21 19  1  0  0  0  0
 22 19  1  0  0  0  0
 23 20  1  0  0  0  0
 24 21  1  0  0  0  0
 25 22  1  0  0  0  0
 26 25  1  0  0  0  0
  5  4  1  0  0  0  0
  8  9  2  0  0  0  0
 24 26  1  0  0  0  0
M  END
>  <Code> (P7013990087)
P7013990087

>  <Number of H-Donors> (P7013990087)
1

>  <Number of H-Acceptors> (P7013990087)
5

>  <Number of Rotatable bonds> (P7013990087)
6

>  <CLogP> (P7013990087)
2.600000000000000e+000

>  <Number of Rings> (P7013990087)
3

>  <PSA> (P7013990087)
1.163000000000000e+002

$$$$

  -ISIS-  11102212342D

 26 29  0  0  0  0  0  0  0  0999 V2000
   -1.5708   -1.6375    0.0000 C   0  0  0  0  0  0  0  0  0  0  0  0
   -1.1458   -2.3542    0.0000 C   0  0  0  0  0  0  0  0  0  0  0  0
   -1.1708   -0.9167    0.0000 C   0  0  0  0  0  0  0  0  0  0  0  0
   -0.3458   -0.9042    0.0000 N   0  0  3  0  0  0  0  0  0  0  0  0
   -0.3208   -2.3417    0.0000 N   0  0  0  0  0  0  0  0  0  0  0  0
   -2.3833   -1.8250    0.0000 C   0  0  0  0  0  0  0  0  0  0  0  0
   -1.6958   -2.9750    0.0000 S   0  0  0  0  0  0  0  0  0  0  0  0
   -2.4583   -2.6417    0.0000 C   0  0  0  0  0  0  0  0  0  0  0  0
    0.0792   -1.6250    0.0000 C   0  0  0  0  0  0  0  0  0  0  0  0
    0.8917   -0.1750    0.0000 C   0  0  0  0  0  0  0  0  0  0  0  0
    0.0667   -0.1875    0.0000 C   0  0  0  0  0  0  0  0  0  0  0  0
   -1.5958   -0.2125    0.0000 O   0  0  0  0  0  0  0  0  0  0  0  0
    1.2917    0.5458    0.0000 N   0  0  0  0  0  0  0  0  0  0  0  0
   -3.2000   -2.9875    0.0000 C   0  0  0  0  0  0  0  0  0  0  0  0
    1.3167   -0.8792    0.0000 O   0  0  0  0  0  0  0  0  0  0  0  0
    2.1125    0.5625    0.0000 C   0  0  3  0  0  0  0  0  0  0  0  0
   -3.8708   -2.5125    0.0000 C   0  0  0  0  0  0  0  0  0  0  0  0
   -3.2708   -3.7917    0.0000 C   0  0  0  0  0  0  0  0  0  0  0  0
    2.5292   -0.1500    0.0000 C   0  0  0  0  0  0  0  0  0  0  0  0
    2.5042    1.2833    0.0000 C   0  0  0  0  0  0  0  0  0  0  0  0
   -4.0083   -4.1417    0.0000 C   0  0  0  0  0  0  0  0  0  0  0  0
   -4.6125   -2.8542    0.0000 C   0  0  0  0  0  0  0  0  0  0  0  0
    3.3375    1.2958    0.0000 C   0  0  0  0  0  0  0  0  0  0  0  0
    3.3542   -0.1375    0.0000 C   0  0  0  0  0  0  0  0  0  0  0  0
    3.7625    0.5833    0.0000 C   0  0  0  0  0  0  0  0  0  0  0  0
   -4.6833   -3.6750    0.0000 C   0  0  0  0  0  0  0  0  0  0  0  0
  2  1  2  0  0  0  0
  3  1  1  0  0  0  0
  4  3  1  0  0  0  0
  5  2  1  0  0  0  0
  6  1  1  0  0  0  0
  7  2  1  0  0  0  0
  8  6  2  0  0  0  0
  9  4  1  0  0  0  0
 10 11  1  0  0  0  0
 11  4  1  0  0  0  0
 12  3  2  0  0  0  0
 13 10  1  0  0  0  0
 14  8  1  0  0  0  0
 15 10  2  0  0  0  0
 16 13  1  0  0  0  0
 17 14  2  0  0  0  0
 18 14  1  0  0  0  0
 19 16  1  0  0  0  0
 20 16  1  0  0  0  0
 21 18  2  0  0  0  0
 22 17  1  0  0  0  0
 23 20  1  0  0  0  0
 24 19  1  0  0  0  0
 25 23  1  0  0  0  0
 26 21  1  0  0  0  0
  7  8  1  0  0  0  0
  5  9  2  0  0  0  0
 22 26  2  0  0  0  0
 24 25  1  0  0  0  0
M  END
>  <Code> (P7013990076)
P7013990076

>  <Number of H-Donors> (P7013990076)
1

>  <Number of H-Acceptors> (P7013990076)
3

>  <Number of Rotatable bonds> (P7013990076)
4

>  <CLogP> (P7013990076)
3.500000000000000e+000

>  <Number of Rings> (P7013990076)
4

>  <PSA> (P7013990076)
9.000000000000000e+001

$$$$

  -ISIS-  11102212342D

 29 31  0  0  0  0  0  0  0  0999 V2000
    0.0000   -4.6750    0.0000 C   0  0  0  0  0  0  0  0  0  0  0  0
   -0.7125   -4.2542    0.0000 C   0  0  0  0  0  0  0  0  0  0  0  0
   -1.4250   -4.6792    0.0000 C   0  0  0  0  0  0  0  0  0  0  0  0
    0.7167   -4.2542    0.0000 C   0  0  0  0  0  0  0  0  0  0  0  0
   -0.7083   -5.9167    0.0000 N   0  0  0  0  0  0  0  0  0  0  0  0
    0.0042   -5.5000    0.0000 C   0  0  0  0  0  0  0  0  0  0  0  0
   -1.4250   -5.5042    0.0000 C   0  0  0  0  0  0  0  0  0  0  0  0
    2.1250   -1.7750    0.0000 C   0  0  0  0  0  0  0  0  0  0  0  0
   -2.1375   -4.2667    0.0000 C   0  0  0  0  0  0  0  0  0  0  0  0
    2.1250   -0.9500    0.0000 C   0  0  0  0  0  0  0  0  0  0  0  0
    0.7167   -3.4375    0.0000 O   0  0  0  0  0  0  0  0  0  0  0  0
   -0.7208   -3.4375    0.0000 N   0  0  0  0  0  0  0  0  0  0  0  0
    1.4125   -2.1917    0.0000 C   0  0  0  0  0  0  0  0  0  0  0  0
    1.4000   -0.5417    0.0000 C   0  0  0  0  0  0  0  0  0  0  0  0
   -2.1375   -5.9250    0.0000 C   0  0  0  0  0  0  0  0  0  0  0  0
   -2.8500   -4.6792    0.0000 C   0  0  0  0  0  0  0  0  0  0  0  0
    0.7000   -1.7750    0.0000 C   0  0  0  0  0  0  0  0  0  0  0  0
    1.4292   -4.6750    0.0000 O   0  0  0  0  0  0  0  0  0  0  0  0
   -2.8500   -5.5125    0.0000 C   0  0  0  0  0  0  0  0  0  0  0  0
    0.6875   -0.9625    0.0000 C   0  0  0  0  0  0  0  0  0  0  0  0
    2.8417   -2.1875    0.0000 O   0  0  0  0  0  0  0  0  0  0  0  0
   -3.5625   -4.2750    0.0000 F   0  0  0  0  0  0  0  0  0  0  0  0
    2.8375   -0.5375    0.0000 O   0  0  0  0  0  0  0  0  0  0  0  0
   -0.0083   -3.0250    0.0000 C   0  0  0  0  0  0  0  0  0  0  0  0
   -0.0125   -2.2000    0.0000 C   0  0  0  0  0  0  0  0  0  0  0  0
    2.1417   -4.2542    0.0000 C   0  0  0  0  0  0  0  0  0  0  0  0
    2.8500   -3.0125    0.0000 C   0  0  0  0  0  0  0  0  0  0  0  0
    3.5500   -0.9417    0.0000 C   0  0  0  0  0  0  0  0  0  0  0  0
    2.8542   -4.6792    0.0000 C   0  0  0  0  0  0  0  0  0  0  0  0
  2  1  2  0  0  0  0
  3  2  1  0  0  0  0
  4  1  1  0  0  0  0
  5  6  2  0  0  0  0
  6  1  1  0  0  0  0
  7  5  1  0  0  0  0
  8 13  1  0  0  0  0
  9  3  2  0  0  0  0
 10 14  1  0  0  0  0
 11  4  2  0  0  0  0
 12  2  1  0  0  0  0
 13 17  2  0  0  0  0
 14 20  2  0  0  0  0
 15  7  2  0  0  0  0
 16  9  1  0  0  0  0
 17 25  1  0  0  0  0
 18  4  1  0  0  0  0
 19 15  1  0  0  0  0
 20 17  1  0  0  0  0
 21  8  1  0  0  0  0
 22 16  1  0  0  0  0
 23 10  1  0  0  0  0
 24 12  1  0  0  0  0
 25 24  1  0  0  0  0
 26 18  1  0  0  0  0
 27 21  1  0  0  0  0
 28 23  1  0  0  0  0
 29 26  1  0  0  0  0
  3  7  1  0  0  0  0
 16 19  2  0  0  0  0
  8 10  2  0  0  0  0
M  END
>  <Code> (P7013980245)
P7013980245

>  <Number of H-Donors> (P7013980245)
1

>  <Number of H-Acceptors> (P7013980245)
6

>  <Number of Rotatable bonds> (P7013980245)
9

>  <CLogP> (P7013980245)
4.100000000000000e+000

>  <Number of Rings> (P7013980245)
3

>  <PSA> (P7013980245)
6.970000000000000e+001

$$$$

  -ISIS-  11102212342D

 26 28  0  0  0  0  0  0  0  0999 V2000
   -0.3708   -4.6750    0.0000 C   0  0  0  0  0  0  0  0  0  0  0  0
    0.3542   -5.0875    0.0000 C   0  0  0  0  0  0  0  0  0  0  0  0
   -1.0708   -5.0917    0.0000 C   0  0  0  0  0  0  0  0  0  0  0  0
    1.0750   -4.6750    0.0000 C   0  0  0  0  0  0  0  0  0  0  0  0
   -0.3583   -6.3417    0.0000 N   0  0  0  0  0  0  0  0  0  0  0  0
    0.3625   -5.9167    0.0000 C   0  0  0  0  0  0  0  0  0  0  0  0
   -0.3708   -3.8417    0.0000 N   0  0  0  0  0  0  0  0  0  0  0  0
   -1.0708   -5.9250    0.0000 C   0  0  0  0  0  0  0  0  0  0  0  0
   -1.7958   -4.6792    0.0000 C   0  0  0  0  0  0  0  0  0  0  0  0
   -0.3958   -0.5375    0.0000 C   0  0  0  0  0  0  0  0  0  0  0  0
   -0.3833   -1.3542    0.0000 C   0  0  0  0  0  0  0  0  0  0  0  0
    1.0750   -3.8500    0.0000 O   0  0  0  0  0  0  0  0  0  0  0  0
    0.3125   -0.1125    0.0000 O   0  0  0  0  0  0  0  0  0  0  0  0
   -0.3708   -3.0250    0.0000 C   0  0  0  0  0  0  0  0  0  0  0  0
    0.3375   -1.7667    0.0000 C   0  0  0  0  0  0  0  0  0  0  0  0
   -1.0958   -1.7792    0.0000 C   0  0  0  0  0  0  0  0  0  0  0  0
   -1.7958   -6.3417    0.0000 C   0  0  0  0  0  0  0  0  0  0  0  0
   -2.5125   -5.0917    0.0000 C   0  0  0  0  0  0  0  0  0  0  0  0
    1.7875   -5.0875    0.0000 O   0  0  0  0  0  0  0  0  0  0  0  0
    0.3500   -2.6000    0.0000 C   0  0  0  0  0  0  0  0  0  0  0  0
   -1.0833   -2.6042    0.0000 C   0  0  0  0  0  0  0  0  0  0  0  0
   -2.5125   -5.9292    0.0000 C   0  0  0  0  0  0  0  0  0  0  0  0
   -3.2333   -4.6792    0.0000 F   0  0  0  0  0  0  0  0  0  0  0  0
   -1.1083   -0.1250    0.0000 C   0  0  0  0  0  0  0  0  0  0  0  0
    2.5042   -4.6750    0.0000 C   0  0  0  0  0  0  0  0  0  0  0  0
    3.2167   -5.0917    0.0000 C   0  0  0  0  0  0  0  0  0  0  0  0
  2  1  2  0  0  0  0
  3  1  1  0  0  0  0
  4  2  1  0  0  0  0
  5  8  1  0  0  0  0
  6  2  1  0  0  0  0
  7  1  1  0  0  0  0
  8  3  1  0  0  0  0
  9  3  2  0  0  0  0
 10 11  1  0  0  0  0
 11 16  2  0  0  0  0
 12  4  2  0  0  0  0
 13 10  2  0  0  0  0
 14  7  1  0  0  0  0
 15 20  2  0  0  0  0
 16 21  1  0  0  0  0
 17  8  2  0  0  0  0
 18  9  1  0  0  0  0
 19  4  1  0  0  0  0
 20 14  1  0  0  0  0
 21 14  2  0  0  0  0
 22 18  2  0  0  0  0
 23 18  1  0  0  0  0
 24 10  1  0  0  0  0
 25 19  1  0  0  0  0
 26 25  1  0  0  0  0
  6  5  2  0  0  0  0
 11 15  1  0  0  0  0
 17 22  1  0  0  0  0
M  END
>  <Code> (P7013980235)
P7013980235

>  <Number of H-Donors> (P7013980235)
1

>  <Number of H-Acceptors> (P7013980235)
5

>  <Number of Rotatable bonds> (P7013980235)
6

>  <CLogP> (P7013980235)
3.700000000000000e+000

>  <Number of Rings> (P7013980235)
3

>  <PSA> (P7013980235)
6.830000000000000e+001

$$$$

  -ISIS-  11102212342D

 24 26  0  0  0  0  0  0  0  0999 V2000
    0.3292   -4.4375    0.0000 C   0  0  0  0  0  0  0  0  0  0  0  0
   -0.3833   -4.0167    0.0000 C   0  0  0  0  0  0  0  0  0  0  0  0
   -1.0708   -4.4542    0.0000 C   0  0  0  0  0  0  0  0  0  0  0  0
    1.0500   -4.0250    0.0000 C   0  0  0  0  0  0  0  0  0  0  0  0
   -0.3833   -3.1792    0.0000 N   0  0  0  0  0  0  0  0  0  0  0  0
   -0.3625   -5.7167    0.0000 N   0  0  0  0  0  0  0  0  0  0  0  0
    0.3292   -5.2417    0.0000 C   0  0  0  0  0  0  0  0  0  0  0  0
   -1.0708   -5.3000    0.0000 C   0  0  0  0  0  0  0  0  0  0  0  0
   -1.7833   -4.0292    0.0000 C   0  0  0  0  0  0  0  0  0  0  0  0
    1.0500   -3.2000    0.0000 O   0  0  0  0  0  0  0  0  0  0  0  0
    1.7542   -1.9417    0.0000 N   0  0  0  0  0  0  0  0  0  0  0  0
   -0.3833   -2.3542    0.0000 C   0  0  0  0  0  0  0  0  0  0  0  0
   -1.7708   -5.7167    0.0000 C   0  0  0  0  0  0  0  0  0  0  0  0
    0.3292   -1.9417    0.0000 C   0  0  0  0  0  0  0  0  0  0  0  0
   -2.4750   -4.4542    0.0000 C   0  0  0  0  0  0  0  0  0  0  0  0
    1.7625   -4.4375    0.0000 O   0  0  0  0  0  0  0  0  0  0  0  0
   -2.4750   -5.3000    0.0000 C   0  0  0  0  0  0  0  0  0  0  0  0
   -3.2000   -4.0417    0.0000 F   0  0  0  0  0  0  0  0  0  0  0  0
    1.0417   -2.3542    0.0000 C   0  0  0  0  0  0  0  0  0  0  0  0
    1.7625   -1.1167    0.0000 C   0  0  0  0  0  0  0  0  0  0  0  0
    0.3292   -1.1167    0.0000 C   0  0  0  0  0  0  0  0  0  0  0  0
    2.4792   -4.0250    0.0000 C   0  0  0  0  0  0  0  0  0  0  0  0
    1.0417   -0.7042    0.0000 C   0  0  0  0  0  0  0  0  0  0  0  0
    3.1917   -4.4417    0.0000 C   0  0  0  0  0  0  0  0  0  0  0  0
  2  1  2  0  0  0  0
  3  2  1  0  0  0  0
  4  1  1  0  0  0  0
  5  2  1  0  0  0  0
  6  7  2  0  0  0  0
  7  1  1  0  0  0  0
  8  6  1  0  0  0  0
  9  3  2  0  0  0  0
 10  4  2  0  0  0  0
 11 19  1  0  0  0  0
 12  5  1  0  0  0  0
 13  8  2  0  0  0  0
 14 12  1  0  0  0  0
 15  9  1  0  0  0  0
 16  4  1  0  0  0  0
 17 13  1  0  0  0  0
 18 15  1  0  0  0  0
 19 14  2  0  0  0  0
 20 23  1  0  0  0  0
 21 14  1  0  0  0  0
 22 16  1  0  0  0  0
 23 21  2  0  0  0  0
 24 22  1  0  0  0  0
  8  3  1  0  0  0  0
 17 15  2  0  0  0  0
 20 11  2  0  0  0  0
M  END
>  <Code> (P7013980184)
P7013980184

>  <Number of H-Donors> (P7013980184)
1

>  <Number of H-Acceptors> (P7013980184)
5

>  <Number of Rotatable bonds> (P7013980184)
6

>  <CLogP> (P7013980184)
2.700000000000000e+000

>  <Number of Rings> (P7013980184)
3

>  <PSA> (P7013980184)
6.409999999999999e+001

$$$$

  -ISIS-  11102212342D

 26 28  0  0  0  0  0  0  0  0999 V2000
    1.0917   -2.7667    0.0000 C   0  0  0  0  0  0  0  0  0  0  0  0
    1.8042   -3.1792    0.0000 N   0  0  0  0  0  0  0  0  0  0  0  0
    1.8167   -4.0042    0.0000 C   0  0  0  0  0  0  0  0  0  0  0  0
    1.1042   -4.4250    0.0000 N   0  0  0  0  0  0  0  0  0  0  0  0
    0.3792   -3.1875    0.0000 C   0  0  0  0  0  0  0  0  0  0  0  0
    0.3792   -4.0042    0.0000 C   0  0  0  0  0  0  0  0  0  0  0  0
    2.5375   -4.4000    0.0000 C   0  0  0  0  0  0  0  0  0  0  0  0
    1.0917   -1.9417    0.0000 N   0  0  0  0  0  0  0  0  0  0  0  0
    3.2417   -3.9792    0.0000 O   0  0  0  0  0  0  0  0  0  0  0  0
    1.0917   -1.1250    0.0000 C   0  0  0  0  0  0  0  0  0  0  0  0
    1.0542    1.3583    0.0000 O   0  0  0  0  0  0  0  0  0  0  0  0
    1.0667    0.5333    0.0000 C   0  0  0  0  0  0  0  0  0  0  0  0
    2.5542   -5.2292    0.0000 O   0  0  0  0  0  0  0  0  0  0  0  0
    0.3667   -0.7125    0.0000 C   0  0  0  0  0  0  0  0  0  0  0  0
    1.7917   -0.7042    0.0000 C   0  0  0  0  0  0  0  0  0  0  0  0
    0.3542    0.1083    0.0000 C   0  0  0  0  0  0  0  0  0  0  0  0
    1.7917    0.1208    0.0000 C   0  0  0  0  0  0  0  0  0  0  0  0
   -0.3333   -2.7750    0.0000 C   0  0  0  0  0  0  0  0  0  0  0  0
   -0.3333   -4.4292    0.0000 C   0  0  0  0  0  0  0  0  0  0  0  0
    1.7667    1.7750    0.0000 C   0  0  3  0  0  0  0  0  0  0  0  0
    3.2792   -5.6250    0.0000 C   0  0  0  0  0  0  0  0  0  0  0  0
    2.4917    1.3750    0.0000 C   0  0  0  0  0  0  0  0  0  0  0  0
    1.7542    2.6000    0.0000 C   0  0  0  0  0  0  0  0  0  0  0  0
   -1.0458   -3.1875    0.0000 C   0  0  0  0  0  0  0  0  0  0  0  0
    3.2917   -6.4500    0.0000 C   0  0  0  0  0  0  0  0  0  0  0  0
   -1.0458   -4.0167    0.0000 C   0  0  0  0  0  0  0  0  0  0  0  0
  2  1  2  0  0  0  0
  3  2  1  0  0  0  0
  4  6  1  0  0  0  0
  5  1  1  0  0  0  0
  6  5  1  0  0  0  0
  7  3  1  0  0  0  0
  8  1  1  0  0  0  0
  9  7  2  0  0  0  0
 10  8  1  0  0  0  0
 11 12  1  0  0  0  0
 12 17  1  0  0  0  0
 13  7  1  0  0  0  0
 14 10  2  0  0  0  0
 15 10  1  0  0  0  0
 16 14  1  0  0  0  0
 17 15  2  0  0  0  0
 18  5  2  0  0  0  0
 19  6  2  0  0  0  0
 20 11  1  0  0  0  0
 21 13  1  0  0  0  0
 22 20  1  0  0  0  0
 23 20  1  0  0  0  0
 24 18  1  0  0  0  0
 25 21  1  0  0  0  0
 26 24  2  0  0  0  0
  4  3  2  0  0  0  0
 12 16  2  0  0  0  0
 26 19  1  0  0  0  0
M  END
>  <Code> (P7013980091)
P7013980091

>  <Number of H-Donors> (P7013980091)
1

>  <Number of H-Acceptors> (P7013980091)
6

>  <Number of Rotatable bonds> (P7013980091)
7

>  <CLogP> (P7013980091)
3.900000000000000e+000

>  <Number of Rings> (P7013980091)
3

>  <PSA> (P7013980091)
7.330000000000000e+001

$$$$

  -ISIS-  11102212342D

 23 25  0  0  0  0  0  0  0  0999 V2000
    1.4292   -2.1625    0.0000 C   0  0  0  0  0  0  0  0  0  0  0  0
    2.1500   -2.5750    0.0000 N   0  0  0  0  0  0  0  0  0  0  0  0
    2.1500   -3.4042    0.0000 C   0  0  0  0  0  0  0  0  0  0  0  0
    1.4292   -3.8167    0.0000 N   0  0  0  0  0  0  0  0  0  0  0  0
    0.7250   -2.5792    0.0000 C   0  0  0  0  0  0  0  0  0  0  0  0
    0.7250   -3.4042    0.0000 C   0  0  0  0  0  0  0  0  0  0  0  0
    2.8667   -3.8000    0.0000 C   0  0  0  0  0  0  0  0  0  0  0  0
    1.4250   -1.3375    0.0000 N   0  0  0  0  0  0  0  0  0  0  0  0
    3.5792   -3.3792    0.0000 O   0  0  0  0  0  0  0  0  0  0  0  0
    1.4250   -0.5125    0.0000 C   0  0  0  0  0  0  0  0  0  0  0  0
    2.8875   -4.6292    0.0000 O   0  0  0  0  0  0  0  0  0  0  0  0
    1.4125    1.1375    0.0000 C   0  0  0  0  0  0  0  0  0  0  0  0
    1.4042    1.9625    0.0000 Br  0  0  0  0  0  0  0  0  0  0  0  0
    0.7042   -0.0917    0.0000 C   0  0  0  0  0  0  0  0  0  0  0  0
    2.1417   -0.0917    0.0000 C   0  0  0  0  0  0  0  0  0  0  0  0
    0.7000    0.7208    0.0000 C   0  0  0  0  0  0  0  0  0  0  0  0
    2.1292    0.7333    0.0000 C   0  0  0  0  0  0  0  0  0  0  0  0
    0.0042   -2.1625    0.0000 C   0  0  0  0  0  0  0  0  0  0  0  0
    0.0042   -3.8292    0.0000 C   0  0  0  0  0  0  0  0  0  0  0  0
    3.6125   -5.0250    0.0000 C   0  0  0  0  0  0  0  0  0  0  0  0
   -0.7125   -2.5917    0.0000 C   0  0  0  0  0  0  0  0  0  0  0  0
    3.6292   -5.8500    0.0000 C   0  0  0  0  0  0  0  0  0  0  0  0
   -0.7125   -3.4167    0.0000 C   0  0  0  0  0  0  0  0  0  0  0  0
  2  1  2  0  0  0  0
  3  2  1  0  0  0  0
  4  6  1  0  0  0  0
  5  1  1  0  0  0  0
  6  5  1  0  0  0  0
  7  3  1  0  0  0  0
  8  1  1  0  0  0  0
  9  7  2  0  0  0  0
 10  8  1  0  0  0  0
 11  7  1  0  0  0  0
 12 17  1  0  0  0  0
 13 12  1  0  0  0  0
 14 10  2  0  0  0  0
 15 10  1  0  0  0  0
 16 14  1  0  0  0  0
 17 15  2  0  0  0  0
 18  5  2  0  0  0  0
 19  6  2  0  0  0  0
 20 11  1  0  0  0  0
 21 18  1  0  0  0  0
 22 20  1  0  0  0  0
 23 21  2  0  0  0  0
  4  3  2  0  0  0  0
 12 16  2  0  0  0  0
 23 19  1  0  0  0  0
M  END
>  <Code> (P7013980068)
P7013980068

>  <Number of H-Donors> (P7013980068)
1

>  <Number of H-Acceptors> (P7013980068)
5

>  <Number of Rotatable bonds> (P7013980068)
5

>  <CLogP> (P7013980068)
3.900000000000000e+000

>  <Number of Rings> (P7013980068)
3

>  <PSA> (P7013980068)
6.409999999999999e+001

$$$$

  -ISIS-  11102212342D

 23 25  0  0  0  0  0  0  0  0999 V2000
    0.0875   -1.2917    0.0000 C   0  0  0  0  0  0  0  0  0  0  0  0
    0.7917   -1.7042    0.0000 N   0  0  0  0  0  0  0  0  0  0  0  0
    0.7917   -2.4917    0.0000 C   0  0  0  0  0  0  0  0  0  0  0  0
    0.0875   -2.9042    0.0000 N   0  0  0  0  0  0  0  0  0  0  0  0
   -0.6250   -1.7250    0.0000 C   0  0  0  0  0  0  0  0  0  0  0  0
   -0.6250   -2.5125    0.0000 C   0  0  0  0  0  0  0  0  0  0  0  0
    1.5375   -2.8917    0.0000 C   0  0  0  0  0  0  0  0  0  0  0  0
    0.0667   -0.4875    0.0000 N   0  0  0  0  0  0  0  0  0  0  0  0
    2.2667   -2.4667    0.0000 O   0  0  0  0  0  0  0  0  0  0  0  0
    0.0667    0.3208    0.0000 C   0  0  0  0  0  0  0  0  0  0  0  0
    1.5542   -3.7250    0.0000 O   0  0  0  0  0  0  0  0  0  0  0  0
    0.0375    1.9333    0.0000 C   0  0  0  0  0  0  0  0  0  0  0  0
    0.7792    0.7083    0.0000 C   0  0  0  0  0  0  0  0  0  0  0  0
   -0.6458    0.7083    0.0000 C   0  0  0  0  0  0  0  0  0  0  0  0
    0.7667    1.5333    0.0000 C   0  0  0  0  0  0  0  0  0  0  0  0
   -0.6458    1.5208    0.0000 C   0  0  0  0  0  0  0  0  0  0  0  0
   -1.3333   -1.3167    0.0000 C   0  0  0  0  0  0  0  0  0  0  0  0
   -1.3333   -2.9042    0.0000 C   0  0  0  0  0  0  0  0  0  0  0  0
    2.3042   -4.1167    0.0000 C   0  0  0  0  0  0  0  0  0  0  0  0
    0.0375    2.7500    0.0000 C   0  0  0  0  0  0  0  0  0  0  0  0
   -2.0333   -1.7250    0.0000 C   0  0  0  0  0  0  0  0  0  0  0  0
    2.3167   -4.9500    0.0000 C   0  0  0  0  0  0  0  0  0  0  0  0
   -2.0333   -2.5125    0.0000 C   0  0  0  0  0  0  0  0  0  0  0  0
  2  1  2  0  0  0  0
  3  2  1  0  0  0  0
  4  6  1  0  0  0  0
  5  1  1  0  0  0  0
  6  5  1  0  0  0  0
  7  3  1  0  0  0  0
  8  1  1  0  0  0  0
  9  7  2  0  0  0  0
 10  8  1  0  0  0  0
 11  7  1  0  0  0  0
 12 16  2  0  0  0  0
 13 10  1  0  0  0  0
 14 10  2  0  0  0  0
 15 13  2  0  0  0  0
 16 14  1  0  0  0  0
 17  5  2  0  0  0  0
 18  6  2  0  0  0  0
 19 11  1  0  0  0  0
 20 12  1  0  0  0  0
 21 17  1  0  0  0  0
 22 19  1  0  0  0  0
 23 21  2  0  0  0  0
  3  4  2  0  0  0  0
 15 12  1  0  0  0  0
 18 23  1  0  0  0  0
M  END
>  <Code> (P7013980006)
P7013980006

>  <Number of H-Donors> (P7013980006)
1

>  <Number of H-Acceptors> (P7013980006)
5

>  <Number of Rotatable bonds> (P7013980006)
5

>  <CLogP> (P7013980006)
3.600000000000000e+000

>  <Number of Rings> (P7013980006)
3

>  <PSA> (P7013980006)
6.409999999999999e+001

$$$$

  -ISIS-  11102212342D

 25 27  0  0  0  0  0  0  0  0999 V2000
    0.7417    0.1958    0.0000 C   0  0  0  0  0  0  0  0  0  0  0  0
    1.4542   -0.2167    0.0000 C   0  0  0  0  0  0  0  0  0  0  0  0
    0.7375    1.0208    0.0000 N   0  0  0  0  0  0  0  0  0  0  0  0
    0.0292   -0.2167    0.0000 C   0  0  0  0  0  0  0  0  0  0  0  0
    0.0167    1.4333    0.0000 C   0  0  0  0  0  0  0  0  0  0  0  0
    2.1667    0.2000    0.0000 C   0  0  0  0  0  0  0  0  0  0  0  0
    0.7500   -1.4625    0.0000 N   0  0  0  0  0  0  0  0  0  0  0  0
    1.4625   -1.0417    0.0000 C   0  0  0  0  0  0  0  0  0  0  0  0
    0.0292   -1.0500    0.0000 C   0  0  0  0  0  0  0  0  0  0  0  0
   -0.6958    1.0208    0.0000 C   0  0  0  0  0  0  0  0  0  0  0  0
   -0.6833    0.1875    0.0000 C   0  0  0  0  0  0  0  0  0  0  0  0
    0.0167    2.2708    0.0000 C   0  0  0  0  0  0  0  0  0  0  0  0
    2.1667    1.0250    0.0000 O   0  0  0  0  0  0  0  0  0  0  0  0
   -0.6958    2.6833    0.0000 C   0  0  0  0  0  0  0  0  0  0  0  0
   -1.4208    1.4333    0.0000 C   0  0  0  0  0  0  0  0  0  0  0  0
   -0.6833   -1.4667    0.0000 C   0  0  0  0  0  0  0  0  0  0  0  0
   -1.3958   -0.2292    0.0000 C   0  0  0  0  0  0  0  0  0  0  0  0
    2.8875   -0.2042    0.0000 O   0  0  0  0  0  0  0  0  0  0  0  0
   -1.4208    2.2708    0.0000 C   0  0  0  0  0  0  0  0  0  0  0  0
   -1.3958   -1.0542    0.0000 C   0  0  0  0  0  0  0  0  0  0  0  0
   -2.1333    1.0125    0.0000 Cl  0  0  0  0  0  0  0  0  0  0  0  0
   -2.1083    0.1833    0.0000 Cl  0  0  0  0  0  0  0  0  0  0  0  0
    0.7375    2.6750    0.0000 O   0  0  0  0  0  0  0  0  0  0  0  0
    2.8917   -1.0292    0.0000 C   0  0  0  0  0  0  0  0  0  0  0  0
    3.6125   -1.4417    0.0000 C   0  0  0  0  0  0  0  0  0  0  0  0
  2  1  2  0  0  0  0
  3  1  1  0  0  0  0
  4  1  1  0  0  0  0
  5  3  1  0  0  0  0
  6  2  1  0  0  0  0
  7  9  1  0  0  0  0
  8  2  1  0  0  0  0
  9  4  1  0  0  0  0
 10  5  1  0  0  0  0
 11  4  2  0  0  0  0
 12  5  2  0  0  0  0
 13  6  2  0  0  0  0
 14 12  1  0  0  0  0
 15 10  2  0  0  0  0
 16  9  2  0  0  0  0
 17 11  1  0  0  0  0
 18  6  1  0  0  0  0
 19 14  2  0  0  0  0
 20 17  2  0  0  0  0
 21 15  1  0  0  0  0
 22 17  1  0  0  0  0
 23 12  1  0  0  0  0
 24 18  1  0  0  0  0
 25 24  1  0  0  0  0
  8  7  2  0  0  0  0
 16 20  1  0  0  0  0
 19 15  1  0  0  0  0
M  END
>  <Code> (P7013870443)
P7013870443

>  <Number of H-Donors> (P7013870443)
2

>  <Number of H-Acceptors> (P7013870443)
5

>  <Number of Rotatable bonds> (P7013870443)
5

>  <CLogP> (P7013870443)
4.900000000000000e+000

>  <Number of Rings> (P7013870443)
3

>  <PSA> (P7013870443)
7.150000000000000e+001

$$$$

  -ISIS-  11102212342D

 19 20  0  0  0  0  0  0  0  0999 V2000
    0.9792   -1.9250    0.0000 C   0  0  0  0  0  0  0  0  0  0  0  0
    0.9792   -1.0917    0.0000 N   0  0  0  0  0  0  0  0  0  0  0  0
    0.9667   -0.2750    0.0000 C   0  0  3  0  0  0  0  0  0  0  0  0
    0.2667   -2.3417    0.0000 C   0  0  0  0  0  0  0  0  0  0  0  0
    1.7000   -2.3375    0.0000 N   0  0  0  0  0  0  0  0  0  0  0  0
    0.2542    0.1375    0.0000 C   0  0  0  0  0  0  0  0  0  0  0  0
    0.2667   -3.1750    0.0000 C   0  0  0  0  0  0  0  0  0  0  0  0
    0.9917   -3.5917    0.0000 N   0  0  0  0  0  0  0  0  0  0  0  0
    1.7042   -3.1667    0.0000 C   0  0  0  0  0  0  0  0  0  0  0  0
   -0.4500   -1.9292    0.0000 C   0  0  0  0  0  0  0  0  0  0  0  0
    0.2542    0.9625    0.0000 O   0  0  0  0  0  0  0  0  0  0  0  0
    1.6792    0.1375    0.0000 C   0  0  3  0  0  0  0  0  0  0  0  0
   -0.4500   -3.5917    0.0000 C   0  0  0  0  0  0  0  0  0  0  0  0
   -1.1708   -2.3417    0.0000 C   0  0  0  0  0  0  0  0  0  0  0  0
   -0.4583   -0.2750    0.0000 O   0  0  0  0  0  0  0  0  0  0  0  0
   -1.1708   -3.1792    0.0000 C   0  0  0  0  0  0  0  0  0  0  0  0
   -1.8833   -1.9292    0.0000 Br  0  0  0  0  0  0  0  0  0  0  0  0
    2.4000   -0.2750    0.0000 O   0  0  0  0  0  0  0  0  0  0  0  0
    1.6792    0.9708    0.0000 C   0  0  0  0  0  0  0  0  0  0  0  0
  2  1  1  0  0  0  0
  3  2  1  0  0  0  0
  4  1  1  0  0  0  0
  5  1  2  0  0  0  0
  6  3  1  0  0  0  0
  7  4  1  0  0  0  0
  8  9  2  0  0  0  0
  9  5  1  0  0  0  0
 10  4  2  0  0  0  0
 11  6  2  0  0  0  0
 12  3  1  0  0  0  0
 13  7  2  0  0  0  0
 14 10  1  0  0  0  0
 15  6  1  0  0  0  0
 16 14  2  0  0  0  0
 17 14  1  0  0  0  0
 18 12  1  0  0  0  0
 19 12  1  0  0  0  0
  7  8  1  0  0  0  0
 16 13  1  0  0  0  0
M  END
>  <Code> (P7013870150)
P7013870150

>  <Number of H-Donors> (P7013870150)
3

>  <Number of H-Acceptors> (P7013870150)
6

>  <Number of Rotatable bonds> (P7013870150)
4

>  <CLogP> (P7013870150)
1.500000000000000e+000

>  <Number of Rings> (P7013870150)
2

>  <PSA> (P7013870150)
9.530000000000000e+001

$$$$

  -ISIS-  11102212342D

 29 32  0  0  0  0  0  0  0  0999 V2000
   -0.2208   -1.3292    0.0000 C   0  0  0  0  0  0  0  0  0  0  0  0
    0.2042   -2.0417    0.0000 C   0  0  0  0  0  0  0  0  0  0  0  0
    0.1792   -0.6042    0.0000 C   0  0  0  0  0  0  0  0  0  0  0  0
    1.0042   -0.5917    0.0000 N   0  0  3  0  0  0  0  0  0  0  0  0
    1.0292   -2.0292    0.0000 N   0  0  0  0  0  0  0  0  0  0  0  0
   -1.0333   -1.5167    0.0000 C   0  0  0  0  0  0  0  0  0  0  0  0
   -0.3458   -2.6667    0.0000 S   0  0  0  0  0  0  0  0  0  0  0  0
   -1.1083   -2.3292    0.0000 C   0  0  0  0  0  0  0  0  0  0  0  0
    1.4292   -1.3167    0.0000 C   0  0  0  0  0  0  0  0  0  0  0  0
    2.2417    0.1333    0.0000 C   0  0  0  0  0  0  0  0  0  0  0  0
    2.6625   -0.5667    0.0000 N   0  0  0  0  0  0  0  0  0  0  0  0
    1.4167    0.1208    0.0000 C   0  0  0  0  0  0  0  0  0  0  0  0
    3.4875   -0.5625    0.0000 C   0  0  0  0  0  0  0  0  0  0  0  0
   -0.2458    0.0958    0.0000 O   0  0  0  0  0  0  0  0  0  0  0  0
   -1.8208   -2.7500    0.0000 C   0  0  0  0  0  0  0  0  0  0  0  0
    2.6417    0.8583    0.0000 O   0  0  0  0  0  0  0  0  0  0  0  0
    3.9042   -1.2667    0.0000 C   0  0  0  0  0  0  0  0  0  0  0  0
    3.5042   -1.9917    0.0000 O   0  0  0  0  0  0  0  0  0  0  0  0
    3.8792    0.1583    0.0000 C   0  0  0  0  0  0  0  0  0  0  0  0
   -2.5333   -2.3417    0.0000 C   0  0  0  0  0  0  0  0  0  0  0  0
   -1.8083   -3.5667    0.0000 C   0  0  0  0  0  0  0  0  0  0  0  0
    4.7292   -1.2542    0.0000 C   0  0  0  0  0  0  0  0  0  0  0  0
    2.6792   -2.0000    0.0000 C   0  0  0  0  0  0  0  0  0  0  0  0
    2.2750   -2.7167    0.0000 C   0  0  0  0  0  0  0  0  0  0  0  0
    4.7042    0.1708    0.0000 C   0  0  0  0  0  0  0  0  0  0  0  0
   -3.2458   -2.7625    0.0000 C   0  0  0  0  0  0  0  0  0  0  0  0
   -2.5125   -3.9917    0.0000 C   0  0  0  0  0  0  0  0  0  0  0  0
    5.1292   -0.5375    0.0000 C   0  0  0  0  0  0  0  0  0  0  0  0
   -3.2375   -3.5875    0.0000 C   0  0  0  0  0  0  0  0  0  0  0  0
  2  1  2  0  0  0  0
  3  1  1  0  0  0  0
  4  3  1  0  0  0  0
  5  2  1  0  0  0  0
  6  1  1  0  0  0  0
  7  2  1  0  0  0  0
  8  6  2  0  0  0  0
  9  4  1  0  0  0  0
 10 12  1  0  0  0  0
 11 10  1  0  0  0  0
 12  4  1  0  0  0  0
 13 11  1  0  0  0  0
 14  3  2  0  0  0  0
 15  8  1  0  0  0  0
 16 10  2  0  0  0  0
 17 13  2  0  0  0  0
 18 17  1  0  0  0  0
 19 13  1  0  0  0  0
 20 15  2  0  0  0  0
 21 15  1  0  0  0  0
 22 17  1  0  0  0  0
 23 18  1  0  0  0  0
 24 23  1  0  0  0  0
 25 19  2  0  0  0  0
 26 20  1  0  0  0  0
 27 21  2  0  0  0  0
 28 25  1  0  0  0  0
 29 27  1  0  0  0  0
  7  8  1  0  0  0  0
  9  5  2  0  0  0  0
 29 26  2  0  0  0  0
 22 28  2  0  0  0  0
M  END
>  <Code> (P7013831110)
P7013831110

>  <Number of H-Donors> (P7013831110)
1

>  <Number of H-Acceptors> (P7013831110)
4

>  <Number of Rotatable bonds> (P7013831110)
6

>  <CLogP> (P7013831110)
3.500000000000000e+000

>  <Number of Rings> (P7013831110)
4

>  <PSA> (P7013831110)
9.920000000000000e+001

$$$$

  -ISIS-  11102212342D

 23 25  0  0  0  0  0  0  0  0999 V2000
    0.1167   -0.2042    0.0000 C   0  0  0  0  0  0  0  0  0  0  0  0
    0.4917   -0.8417    0.0000 C   0  0  0  0  0  0  0  0  0  0  0  0
   -0.5875   -0.3667    0.0000 C   0  0  0  0  0  0  0  0  0  0  0  0
   -0.6583   -1.0917    0.0000 C   0  0  0  0  0  0  0  0  0  0  0  0
    0.0125   -1.3792    0.0000 S   0  0  0  0  0  0  0  0  0  0  0  0
    0.4667    0.4250    0.0000 C   0  0  0  0  0  0  0  0  0  0  0  0
    1.1917    0.4458    0.0000 N   0  0  3  0  0  0  0  0  0  0  0  0
    1.2042   -0.8292    0.0000 N   0  0  0  0  0  0  0  0  0  0  0  0
    1.5542   -0.1917    0.0000 C   0  0  0  0  0  0  0  0  0  0  0  0
   -1.3000   -1.4042    0.0000 C   0  0  0  0  0  0  0  0  0  0  0  0
    1.5500    1.0708    0.0000 C   0  0  0  0  0  0  0  0  0  0  0  0
    0.1000    1.0500    0.0000 O   0  0  0  0  0  0  0  0  0  0  0  0
   -1.3625   -2.1292    0.0000 O   0  0  0  0  0  0  0  0  0  0  0  0
    1.1792    1.6958    0.0000 C   0  0  0  0  0  0  0  0  0  0  0  0
   -1.1708    0.0500    0.0000 C   0  0  0  0  0  0  0  0  0  0  0  0
    1.5375    2.3333    0.0000 C   0  0  0  0  0  0  0  0  0  0  0  0
   -1.8958   -0.9875    0.0000 O   0  0  0  0  0  0  0  0  0  0  0  0
    1.1750    2.9583    0.0000 C   0  0  0  0  0  0  0  0  0  0  0  0
    1.5292    3.5875    0.0000 Cl  0  0  0  0  0  0  0  0  0  0  0  0
    0.1000    2.3125    0.0000 C   0  0  0  0  0  0  0  0  0  0  0  0
    0.4667    1.6875    0.0000 C   0  0  0  0  0  0  0  0  0  0  0  0
    0.4542    2.9458    0.0000 C   0  0  0  0  0  0  0  0  0  0  0  0
   -2.5458   -1.2917    0.0000 C   0  0  0  0  0  0  0  0  0  0  0  0
  2  1  2  0  0  0  0
  3  1  1  0  0  0  0
  4  3  2  0  0  0  0
  5  2  1  0  0  0  0
  6  1  1  0  0  0  0
  7  6  1  0  0  0  0
  8  2  1  0  0  0  0
  9  7  1  0  0  0  0
 10  4  1  0  0  0  0
 11  7  1  0  0  0  0
 12  6  2  0  0  0  0
 13 10  2  0  0  0  0
 14 11  1  0  0  0  0
 15  3  1  0  0  0  0
 16 14  2  0  0  0  0
 17 10  1  0  0  0  0
 18 16  1  0  0  0  0
 19 18  1  0  0  0  0
 20 21  2  0  0  0  0
 21 14  1  0  0  0  0
 22 20  1  0  0  0  0
 23 17  1  0  0  0  0
  5  4  1  0  0  0  0
  9  8  2  0  0  0  0
 22 18  2  0  0  0  0
M  END
>  <Code> (P7013830872)
P7013830872

>  <Number of H-Donors> (P7013830872)
0

>  <Number of H-Acceptors> (P7013830872)
4

>  <Number of Rotatable bonds> (P7013830872)
4

>  <CLogP> (P7013830872)
3.600000000000000e+000

>  <Number of Rings> (P7013830872)
3

>  <PSA> (P7013830872)
8.719999999999999e+001

$$$$

  -ISIS-  11102212342D

 23 25  0  0  0  0  0  0  0  0999 V2000
   -0.9125    0.4083    0.0000 C   0  0  0  0  0  0  0  0  0  0  0  0
   -0.4875   -0.3167    0.0000 C   0  0  0  0  0  0  0  0  0  0  0  0
   -1.7250    0.2208    0.0000 C   0  0  0  0  0  0  0  0  0  0  0  0
   -1.8083   -0.6042    0.0000 C   0  0  0  0  0  0  0  0  0  0  0  0
   -1.0375   -0.9292    0.0000 S   0  0  0  0  0  0  0  0  0  0  0  0
   -0.5125    1.1208    0.0000 C   0  0  0  0  0  0  0  0  0  0  0  0
    0.3167    1.1333    0.0000 N   0  0  3  0  0  0  0  0  0  0  0  0
    0.3375   -0.3042    0.0000 N   0  0  0  0  0  0  0  0  0  0  0  0
    0.7375    0.4208    0.0000 C   0  0  0  0  0  0  0  0  0  0  0  0
   -2.5500   -0.9542    0.0000 C   0  0  0  0  0  0  0  0  0  0  0  0
    0.7250    1.8583    0.0000 C   0  0  0  0  0  0  0  0  0  0  0  0
   -0.9375    1.8333    0.0000 O   0  0  0  0  0  0  0  0  0  0  0  0
   -2.6208   -1.7792    0.0000 O   0  0  0  0  0  0  0  0  0  0  0  0
    1.5500    1.8625    0.0000 C   0  0  0  0  0  0  0  0  0  0  0  0
   -2.4000    0.6958    0.0000 C   0  0  0  0  0  0  0  0  0  0  0  0
    1.9500    2.5833    0.0000 C   0  0  0  0  0  0  0  0  0  0  0  0
   -3.2333   -0.4792    0.0000 O   0  0  0  0  0  0  0  0  0  0  0  0
    2.7667    2.5875    0.0000 C   0  0  0  0  0  0  0  0  0  0  0  0
    2.7875    1.1583    0.0000 C   0  0  0  0  0  0  0  0  0  0  0  0
    1.9625    1.1500    0.0000 C   0  0  0  0  0  0  0  0  0  0  0  0
    3.1917    1.8750    0.0000 C   0  0  0  0  0  0  0  0  0  0  0  0
   -3.9750   -0.8292    0.0000 C   0  0  0  0  0  0  0  0  0  0  0  0
    3.1750    3.3083    0.0000 C   0  0  0  0  0  0  0  0  0  0  0  0
  2  1  2  0  0  0  0
  3  1  1  0  0  0  0
  4  3  2  0  0  0  0
  5  2  1  0  0  0  0
  6  1  1  0  0  0  0
  7  6  1  0  0  0  0
  8  2  1  0  0  0  0
  9  7  1  0  0  0  0
 10  4  1  0  0  0  0
 11  7  1  0  0  0  0
 12  6  2  0  0  0  0
 13 10  2  0  0  0  0
 14 11  1  0  0  0  0
 15  3  1  0  0  0  0
 16 14  1  0  0  0  0
 17 10  1  0  0  0  0
 18 16  2  0  0  0  0
 19 20  1  0  0  0  0
 20 14  2  0  0  0  0
 21 19  2  0  0  0  0
 22 17  1  0  0  0  0
 23 18  1  0  0  0  0
  5  4  1  0  0  0  0
  9  8  2  0  0  0  0
 21 18  1  0  0  0  0
M  END
>  <Code> (P7013830868)
P7013830868

>  <Number of H-Donors> (P7013830868)
0

>  <Number of H-Acceptors> (P7013830868)
4

>  <Number of Rotatable bonds> (P7013830868)
4

>  <CLogP> (P7013830868)
3.400000000000000e+000

>  <Number of Rings> (P7013830868)
3

>  <PSA> (P7013830868)
8.719999999999999e+001

$$$$

  -ISIS-  11102212342D

 28 30  0  0  0  0  0  0  0  0999 V2000
   -1.2958   -0.1125    0.0000 C   0  0  0  0  0  0  0  0  0  0  0  0
   -0.8708   -0.8292    0.0000 C   0  0  0  0  0  0  0  0  0  0  0  0
   -2.1000   -0.3000    0.0000 C   0  0  0  0  0  0  0  0  0  0  0  0
   -2.1833   -1.1167    0.0000 C   0  0  0  0  0  0  0  0  0  0  0  0
   -1.4208   -1.4500    0.0000 S   0  0  0  0  0  0  0  0  0  0  0  0
   -0.8958    0.6083    0.0000 C   0  0  0  0  0  0  0  0  0  0  0  0
   -0.0625    0.6208    0.0000 N   0  0  3  0  0  0  0  0  0  0  0  0
   -0.0458   -0.8167    0.0000 N   0  0  0  0  0  0  0  0  0  0  0  0
    0.3542   -0.0917    0.0000 C   0  0  0  0  0  0  0  0  0  0  0  0
   -2.9208   -1.4542    0.0000 C   0  0  0  0  0  0  0  0  0  0  0  0
    1.1667    1.3500    0.0000 C   0  0  0  0  0  0  0  0  0  0  0  0
    1.5875    0.6458    0.0000 N   0  0  0  0  0  0  0  0  0  0  0  0
    0.3417    1.3458    0.0000 C   0  0  0  0  0  0  0  0  0  0  0  0
    2.4125    0.6625    0.0000 C   0  0  0  0  0  0  0  0  0  0  0  0
    2.8375   -0.0542    0.0000 C   0  0  0  0  0  0  0  0  0  0  0  0
   -1.3208    1.3208    0.0000 O   0  0  0  0  0  0  0  0  0  0  0  0
   -2.9208   -2.2792    0.0000 O   0  0  0  0  0  0  0  0  0  0  0  0
    3.6542   -0.0292    0.0000 C   0  0  0  0  0  0  0  0  0  0  0  0
    1.5667    2.0708    0.0000 O   0  0  0  0  0  0  0  0  0  0  0  0
    2.8125    1.3708    0.0000 C   0  0  0  0  0  0  0  0  0  0  0  0
    4.0625    0.6833    0.0000 C   0  0  0  0  0  0  0  0  0  0  0  0
   -2.7750    0.1833    0.0000 C   0  0  0  0  0  0  0  0  0  0  0  0
   -3.6375   -1.0542    0.0000 O   0  0  0  0  0  0  0  0  0  0  0  0
    3.6292    1.3875    0.0000 C   0  0  0  0  0  0  0  0  0  0  0  0
    4.8875    0.7000    0.0000 Cl  0  0  0  0  0  0  0  0  0  0  0  0
    2.4292   -0.7750    0.0000 C   0  0  0  0  0  0  0  0  0  0  0  0
   -4.3500   -1.4625    0.0000 C   0  0  0  0  0  0  0  0  0  0  0  0
   -5.0708   -1.0500    0.0000 C   0  0  0  0  0  0  0  0  0  0  0  0
  2  1  2  0  0  0  0
  3  1  1  0  0  0  0
  4  3  2  0  0  0  0
  5  2  1  0  0  0  0
  6  1  1  0  0  0  0
  7  6  1  0  0  0  0
  8  2  1  0  0  0  0
  9  7  1  0  0  0  0
 10  4  1  0  0  0  0
 11 13  1  0  0  0  0
 12 11  1  0  0  0  0
 13  7  1  0  0  0  0
 14 12  1  0  0  0  0
 15 14  2  0  0  0  0
 16  6  2  0  0  0  0
 17 10  2  0  0  0  0
 18 15  1  0  0  0  0
 19 11  2  0  0  0  0
 20 14  1  0  0  0  0
 21 24  1  0  0  0  0
 22  3  1  0  0  0  0
 23 10  1  0  0  0  0
 24 20  2  0  0  0  0
 25 21  1  0  0  0  0
 26 15  1  0  0  0  0
 27 23  1  0  0  0  0
 28 27  1  0  0  0  0
  4  5  1  0  0  0  0
  9  8  2  0  0  0  0
 21 18  2  0  0  0  0
M  END
>  <Code> (P7013830795)
P7013830795

>  <Number of H-Donors> (P7013830795)
1

>  <Number of H-Acceptors> (P7013830795)
5

>  <Number of Rotatable bonds> (P7013830795)
6

>  <CLogP> (P7013830795)
3.500000000000000e+000

>  <Number of Rings> (P7013830795)
3

>  <PSA> (P7013830795)
1.163000000000000e+002

$$$$

  -ISIS-  11102212342D

 20 22  0  0  0  0  0  0  0  0999 V2000
    6.4875   -6.0542    0.0000 C   0  0  0  0  0  0  0  0  0  0  0  0
    6.0625   -5.3375    0.0000 C   0  0  0  0  0  0  0  0  0  0  0  0
    5.9375   -6.6792    0.0000 S   0  0  0  0  0  0  0  0  0  0  0  0
    5.2500   -5.5292    0.0000 C   0  0  0  0  0  0  0  0  0  0  0  0
    5.1792   -6.3500    0.0000 C   0  0  0  0  0  0  0  0  0  0  0  0
    6.4667   -4.6167    0.0000 C   0  0  0  0  0  0  0  0  0  0  0  0
    7.3125   -6.0500    0.0000 N   0  0  0  0  0  0  0  0  0  0  0  0
    7.3000   -4.6125    0.0000 N   0  0  0  0  0  0  0  0  0  0  0  0
    7.7167   -5.3250    0.0000 C   0  0  0  0  0  0  0  0  0  0  0  0
    6.0375   -3.9125    0.0000 S   0  0  0  0  0  0  0  0  0  0  0  0
    4.5792   -5.0417    0.0000 C   0  0  0  0  0  0  0  0  0  0  0  0
    4.4292   -6.6917    0.0000 C   0  0  0  0  0  0  0  0  0  0  0  0
    6.4292   -3.1875    0.0000 C   0  0  0  0  0  0  0  0  0  0  0  0
    6.4042   -1.7542    0.0000 C   0  0  0  0  0  0  0  0  0  0  0  0
    6.0042   -2.4792    0.0000 C   0  0  0  0  0  0  0  0  0  0  0  0
    7.2167   -1.7417    0.0000 C   0  0  0  0  0  0  0  0  0  0  0  0
    5.9750   -1.0542    0.0000 C   0  0  0  0  0  0  0  0  0  0  0  0
    6.3667   -0.3375    0.0000 C   0  0  0  0  0  0  0  0  0  0  0  0
    7.6250   -1.0167    0.0000 C   0  0  0  0  0  0  0  0  0  0  0  0
    7.1917   -0.3167    0.0000 C   0  0  0  0  0  0  0  0  0  0  0  0
  2  1  2  0  0  0  0
  3  1  1  0  0  0  0
  4  2  1  0  0  0  0
  5  3  1  0  0  0  0
  6  2  1  0  0  0  0
  7  1  1  0  0  0  0
  8  9  1  0  0  0  0
  9  7  2  0  0  0  0
 10  6  1  0  0  0  0
 11  4  1  0  0  0  0
 12  5  1  0  0  0  0
 13 10  1  0  0  0  0
 14 15  1  0  0  0  0
 15 13  1  0  0  0  0
 16 14  2  0  0  0  0
 17 14  1  0  0  0  0
 18 17  2  0  0  0  0
 19 16  1  0  0  0  0
 20 18  1  0  0  0  0
  4  5  2  0  0  0  0
  6  8  2  0  0  0  0
 20 19  2  0  0  0  0
M  END
>  <Code> (P7013830105)
P7013830105

>  <Number of H-Donors> (P7013830105)
0

>  <Number of H-Acceptors> (P7013830105)
3

>  <Number of Rotatable bonds> (P7013830105)
4

>  <CLogP> (P7013830105)
4.700000000000000e+000

>  <Number of Rings> (P7013830105)
3

>  <PSA> (P7013830105)
7.930000000000001e+001

$$$$

  -ISIS-  11102212342D

 20 22  0  0  0  0  0  0  0  0999 V2000
    1.1625   -3.7250    0.0000 C   0  0  0  0  0  0  0  0  0  0  0  0
    1.5875   -4.4417    0.0000 C   0  0  0  0  0  0  0  0  0  0  0  0
    0.2792   -4.7375    0.0000 C   0  0  0  0  0  0  0  0  0  0  0  0
    0.3500   -3.9167    0.0000 C   0  0  0  0  0  0  0  0  0  0  0  0
    1.5667   -3.0042    0.0000 C   0  0  0  0  0  0  0  0  0  0  0  0
    1.0375   -5.0667    0.0000 S   0  0  0  0  0  0  0  0  0  0  0  0
    1.1375   -2.3000    0.0000 S   0  0  0  0  0  0  0  0  0  0  0  0
    2.4125   -4.4375    0.0000 N   0  0  0  0  0  0  0  0  0  0  0  0
    2.4000   -3.0000    0.0000 N   0  0  0  0  0  0  0  0  0  0  0  0
   -0.3208   -3.4292    0.0000 C   0  0  0  0  0  0  0  0  0  0  0  0
    2.8167   -3.7125    0.0000 C   0  0  0  0  0  0  0  0  0  0  0  0
   -0.4708   -5.0792    0.0000 C   0  0  0  0  0  0  0  0  0  0  0  0
    1.5292   -1.5750    0.0000 C   0  0  3  0  0  0  0  0  0  0  0  0
    1.1042   -0.8667    0.0000 C   0  0  0  0  0  0  0  0  0  0  0  0
    0.2792   -0.8875    0.0000 O   0  0  0  0  0  0  0  0  0  0  0  0
   -1.0625   -3.7875    0.0000 C   0  0  0  0  0  0  0  0  0  0  0  0
   -1.1458   -4.6042    0.0000 C   0  0  3  0  0  0  0  0  0  0  0  0
    1.5042   -0.1417    0.0000 C   0  0  0  0  0  0  0  0  0  0  0  0
    2.3542   -1.5542    0.0000 C   0  0  0  0  0  0  0  0  0  0  0  0
   -1.8958   -4.9542    0.0000 C   0  0  0  0  0  0  0  0  0  0  0  0
  2  1  2  0  0  0  0
  3  4  2  0  0  0  0
  4  1  1  0  0  0  0
  5  1  1  0  0  0  0
  6  2  1  0  0  0  0
  7  5  1  0  0  0  0
  8  2  1  0  0  0  0
  9  5  2  0  0  0  0
 10  4  1  0  0  0  0
 11  9  1  0  0  0  0
 12  3  1  0  0  0  0
 13  7  1  0  0  0  0
 14 13  1  0  0  0  0
 15 14  2  0  0  0  0
 16 10  1  0  0  0  0
 17 16  1  0  0  0  0
 18 14  1  0  0  0  0
 19 13  1  0  0  0  0
 20 17  1  0  0  0  0
  6  3  1  0  0  0  0
 11  8  2  0  0  0  0
 12 17  1  0  0  0  0
M  END
>  <Code> (P7013830022)
P7013830022

>  <Number of H-Donors> (P7013830022)
0

>  <Number of H-Acceptors> (P7013830022)
4

>  <Number of Rotatable bonds> (P7013830022)
3

>  <CLogP> (P7013830022)
3.900000000000000e+000

>  <Number of Rings> (P7013830022)
3

>  <PSA> (P7013830022)
9.640000000000001e+001

$$$$

  -ISIS-  11102212342D

 20 21  0  0  0  0  0  0  0  0999 V2000
    0.4042    1.5375    0.0000 C   0  0  0  0  0  0  0  0  0  0  0  0
    1.0667    2.0208    0.0000 N   0  0  0  0  0  0  0  0  0  0  0  0
    1.7375    1.5375    0.0000 C   0  0  0  0  0  0  0  0  0  0  0  0
    0.6542    0.7500    0.0000 C   0  0  0  0  0  0  0  0  0  0  0  0
    1.4792    0.7500    0.0000 S   0  0  0  0  0  0  0  0  0  0  0  0
   -0.3833    1.7875    0.0000 C   0  0  0  0  0  0  0  0  0  0  0  0
    3.1292    1.2375    0.0000 N   0  0  0  0  0  0  0  0  0  0  0  0
    2.5250    1.7958    0.0000 N   0  0  0  0  0  0  0  0  0  0  0  0
   -0.9958    1.2375    0.0000 O   0  0  0  0  0  0  0  0  0  0  0  0
    3.9167    1.4958    0.0000 C   0  0  0  0  0  0  0  0  0  0  0  0
   -0.5583    2.5958    0.0000 O   0  0  0  0  0  0  0  0  0  0  0  0
    4.5292    0.9375    0.0000 C   0  0  0  0  0  0  0  0  0  0  0  0
    5.7542   -0.1667    0.0000 C   0  0  0  0  0  0  0  0  0  0  0  0
    6.3625   -0.7250    0.0000 Cl  0  0  0  0  0  0  0  0  0  0  0  0
    4.9667   -0.4250    0.0000 C   0  0  0  0  0  0  0  0  0  0  0  0
    5.9250    0.6458    0.0000 C   0  0  0  0  0  0  0  0  0  0  0  0
    4.3542    0.1333    0.0000 C   0  0  0  0  0  0  0  0  0  0  0  0
    5.3125    1.1958    0.0000 C   0  0  0  0  0  0  0  0  0  0  0  0
   -1.3375    2.8458    0.0000 C   0  0  0  0  0  0  0  0  0  0  0  0
   -1.5125    3.6583    0.0000 C   0  0  0  0  0  0  0  0  0  0  0  0
  2  1  1  0  0  0  0
  3  2  2  0  0  0  0
  4  1  2  0  0  0  0
  5  4  1  0  0  0  0
  6  1  1  0  0  0  0
  7  8  1  0  0  0  0
  8  3  1  0  0  0  0
  9  6  2  0  0  0  0
 10  7  2  0  0  0  0
 11  6  1  0  0  0  0
 12 10  1  0  0  0  0
 13 16  1  0  0  0  0
 14 13  1  0  0  0  0
 15 17  1  0  0  0  0
 16 18  2  0  0  0  0
 17 12  2  0  0  0  0
 18 12  1  0  0  0  0
 19 11  1  0  0  0  0
 20 19  1  0  0  0  0
  5  3  1  0  0  0  0
 15 13  2  0  0  0  0
M  END
>  <Code> (P7013170379)
P7013170379

>  <Number of H-Donors> (P7013170379)
1

>  <Number of H-Acceptors> (P7013170379)
5

>  <Number of Rotatable bonds> (P7013170379)
6

>  <CLogP> (P7013170379)
3.100000000000000e+000

>  <Number of Rings> (P7013170379)
2

>  <PSA> (P7013170379)
9.180000000000000e+001

$$$$

  -ISIS-  11102212342D

 25 29  0  0  0  0  0  0  0  0999 V2000
    2.3292   -0.9000    0.0000 C   0  0  0  0  0  0  0  0  0  0  0  0
    1.9167   -1.6000    0.0000 C   0  0  0  0  0  0  0  0  0  0  0  0
    1.0375   -0.6292    0.0000 N   0  0  3  0  0  0  0  0  0  0  0  0
    3.1167   -1.0750    0.0000 N   0  0  3  0  0  0  0  0  0  0  0  0
    3.2000   -1.8792    0.0000 C   0  0  0  0  0  0  0  0  0  0  0  0
    1.7792   -0.2917    0.0000 C   0  0  0  0  0  0  0  0  0  0  0  0
    1.1167   -1.4375    0.0000 C   0  0  0  0  0  0  0  0  0  0  0  0
    2.4542   -2.2042    0.0000 S   0  0  0  0  0  0  0  0  0  0  0  0
    3.9875   -2.0500    0.0000 N   0  0  0  0  0  0  0  0  0  0  0  0
    0.3292   -0.2167    0.0000 C   0  0  0  0  0  0  0  0  0  0  0  0
    3.8542   -0.7500    0.0000 C   0  0  0  0  0  0  0  0  0  0  0  0
    4.3917   -1.3500    0.0000 C   0  0  0  0  0  0  0  0  0  0  0  0
    0.3292    0.5958    0.0000 C   0  0  0  0  0  0  0  0  0  0  0  0
    1.9417    0.5000    0.0000 O   0  0  0  0  0  0  0  0  0  0  0  0
    0.5167   -1.9792    0.0000 O   0  0  0  0  0  0  0  0  0  0  0  0
   -0.3708   -0.6292    0.0000 C   0  0  0  0  0  0  0  0  0  0  0  0
   -1.0750   -0.2292    0.0000 C   0  0  0  0  0  0  0  0  0  0  0  0
   -0.3750    1.0000    0.0000 C   0  0  0  0  0  0  0  0  0  0  0  0
   -0.3708   -1.4542    0.0000 Cl  0  0  0  0  0  0  0  0  0  0  0  0
   -1.0833    0.5875    0.0000 C   0  0  0  0  0  0  0  0  0  0  0  0
   -0.3750    1.8250    0.0000 Cl  0  0  0  0  0  0  0  0  0  0  0  0
    4.1042    0.0125    0.0000 C   0  0  0  0  0  0  0  0  0  0  0  0
    5.1792   -1.1917    0.0000 C   0  0  0  0  0  0  0  0  0  0  0  0
    4.8917    0.1750    0.0000 C   0  0  0  0  0  0  0  0  0  0  0  0
    5.4292   -0.4250    0.0000 C   0  0  0  0  0  0  0  0  0  0  0  0
  2  1  2  0  0  0  0
  3  6  1  0  0  0  0
  4  1  1  0  0  0  0
  5  4  1  0  0  0  0
  6  1  1  0  0  0  0
  7  2  1  0  0  0  0
  8  2  1  0  0  0  0
  9  5  2  0  0  0  0
 10  3  1  0  0  0  0
 11  4  1  0  0  0  0
 12 11  2  0  0  0  0
 13 10  2  0  0  0  0
 14  6  2  0  0  0  0
 15  7  2  0  0  0  0
 16 10  1  0  0  0  0
 17 16  2  0  0  0  0
 18 13  1  0  0  0  0
 19 16  1  0  0  0  0
 20 17  1  0  0  0  0
 21 18  1  0  0  0  0
 22 11  1  0  0  0  0
 23 12  1  0  0  0  0
 24 22  2  0  0  0  0
 25 24  1  0  0  0  0
  5  8  1  0  0  0  0
  7  3  1  0  0  0  0
 12  9  1  0  0  0  0
 25 23  2  0  0  0  0
 20 18  2  0  0  0  0
M  END
>  <Code> (P7013170283)
P7013170283

>  <Number of H-Donors> (P7013170283)
0

>  <Number of H-Acceptors> (P7013170283)
3

>  <Number of Rotatable bonds> (P7013170283)
1

>  <CLogP> (P7013170283)
4.700000000000000e+000

>  <Number of Rings> (P7013170283)
5

>  <PSA> (P7013170283)
8.290000000000001e+001

$$$$

  -ISIS-  11102212342D

 18 19  0  0  0  0  0  0  0  0999 V2000
    3.6292    2.1833    0.0000 N   0  0  3  0  0  0  0  0  0  0  0  0
   -0.8250    2.3375    0.0000 N   0  0  3  0  0  0  0  0  0  0  0  0
    2.9792    1.6833    0.0000 C   0  0  0  0  0  0  0  0  0  0  0  0
   -0.3583    3.0208    0.0000 C   0  0  0  0  0  0  0  0  0  0  0  0
    3.2625    0.9000    0.0000 N   0  0  0  0  0  0  0  0  0  0  0  0
   -0.8625    3.6750    0.0000 N   0  0  0  0  0  0  0  0  0  0  0  0
    4.0875    0.9333    0.0000 N   0  0  0  0  0  0  0  0  0  0  0  0
   -1.6375    3.3958    0.0000 N   0  0  0  0  0  0  0  0  0  0  0  0
    4.3167    1.7208    0.0000 C   0  0  0  0  0  0  0  0  0  0  0  0
   -1.6208    2.5708    0.0000 C   0  0  0  0  0  0  0  0  0  0  0  0
    3.6042    3.0083    0.0000 N   0  0  0  0  0  0  0  0  0  0  0  0
   -0.5458    1.5625    0.0000 N   0  0  0  0  0  0  0  0  0  0  0  0
    0.4667    3.0458    0.0000 S   0  0  0  0  0  0  0  0  0  0  0  0
    2.1542    1.6583    0.0000 S   0  0  0  0  0  0  0  0  0  0  0  0
   -2.2708    2.0708    0.0000 C   0  0  0  0  0  0  0  0  0  0  0  0
    5.0917    2.0000    0.0000 C   0  0  0  0  0  0  0  0  0  0  0  0
    1.7250    2.3583    0.0000 C   0  0  0  0  0  0  0  0  0  0  0  0
    0.9000    2.3375    0.0000 C   0  0  0  0  0  0  0  0  0  0  0  0
  2  4  1  0  0  0  0
  3  1  1  0  0  0  0
  4 13  1  0  0  0  0
  5  3  2  0  0  0  0
  6  4  2  0  0  0  0
  7  9  2  0  0  0  0
  8  6  1  0  0  0  0
  9  1  1  0  0  0  0
 10  2  1  0  0  0  0
 11  1  1  0  0  0  0
 12  2  1  0  0  0  0
 13 18  1  0  0  0  0
 14  3  1  0  0  0  0
 15 10  1  0  0  0  0
 16  9  1  0  0  0  0
 17 14  1  0  0  0  0
 18 17  1  0  0  0  0
  5  7  1  0  0  0  0
  8 10  2  0  0  0  0
M  END
>  <Code> (P7013110106)
P7013110106

>  <Number of H-Donors> (P7013110106)
2

>  <Number of H-Acceptors> (P7013110106)
8

>  <Number of Rotatable bonds> (P7013110106)
5

>  <CLogP> (P7013110106)
-1.000000000000000e-001

>  <Number of Rings> (P7013110106)
2

>  <PSA> (P7013110106)
1.641000000000000e+002

$$$$

  -ISIS-  11102212342D

 32 35  0  0  0  0  0  0  0  0999 V2000
    1.2375   -3.3542    0.0000 C   0  0  0  0  0  0  0  0  0  0  0  0
   -0.1875   -3.3667    0.0000 C   0  0  0  0  0  0  0  0  0  0  0  0
    0.5167   -2.9500    0.0000 C   0  0  0  0  0  0  0  0  0  0  0  0
   -0.1875   -4.1917    0.0000 C   0  0  0  0  0  0  0  0  0  0  0  0
    0.5292   -4.6042    0.0000 N   0  0  0  0  0  0  0  0  0  0  0  0
    1.9500   -2.9417    0.0000 C   0  0  0  0  0  0  0  0  0  0  0  0
    1.2417   -4.1875    0.0000 C   0  0  0  0  0  0  0  0  0  0  0  0
   -0.9083   -4.6042    0.0000 C   0  0  0  0  0  0  0  0  0  0  0  0
   -1.6375   -0.0750    0.0000 C   0  0  0  0  0  0  0  0  0  0  0  0
   -0.9083   -2.9542    0.0000 C   0  0  0  0  0  0  0  0  0  0  0  0
   -1.6458    0.7500    0.0000 C   0  0  0  0  0  0  0  0  0  0  0  0
    1.9417   -2.1167    0.0000 O   0  0  0  0  0  0  0  0  0  0  0  0
   -2.3500   -0.4917    0.0000 O   0  0  0  0  0  0  0  0  0  0  0  0
    0.5167   -2.1250    0.0000 N   0  0  0  0  0  0  0  0  0  0  0  0
   -1.6208   -4.1917    0.0000 C   0  0  0  0  0  0  0  0  0  0  0  0
   -1.6208   -3.3667    0.0000 C   0  0  0  0  0  0  0  0  0  0  0  0
   -0.9333    1.1625    0.0000 C   0  0  0  0  0  0  0  0  0  0  0  0
   -2.3583    1.1583    0.0000 C   0  0  0  0  0  0  0  0  0  0  0  0
    2.6667   -3.3500    0.0000 O   0  0  0  0  0  0  0  0  0  0  0  0
   -0.9208   -0.4792    0.0000 O   0  0  0  0  0  0  0  0  0  0  0  0
   -2.3625    1.9750    0.0000 C   0  0  0  0  0  0  0  0  0  0  0  0
   -0.9333    1.9875    0.0000 C   0  0  0  0  0  0  0  0  0  0  0  0
   -1.6500    2.3958    0.0000 C   0  0  0  0  0  0  0  0  0  0  0  0
   -0.9000   -5.4292    0.0000 C   0  0  0  0  0  0  0  0  0  0  0  0
   -0.2000   -1.7167    0.0000 C   0  0  0  0  0  0  0  0  0  0  0  0
   -2.3333   -4.6042    0.0000 C   0  0  0  0  0  0  0  0  0  0  0  0
   -0.2083   -0.8917    0.0000 C   0  0  0  0  0  0  0  0  0  0  0  0
    3.3792   -2.9292    0.0000 C   0  0  0  0  0  0  0  0  0  0  0  0
   -1.6583    3.2208    0.0000 C   0  0  0  0  0  0  0  0  0  0  0  0
   -1.6083   -5.8417    0.0000 C   0  0  0  0  0  0  0  0  0  0  0  0
    4.0917   -3.3417    0.0000 C   0  0  0  0  0  0  0  0  0  0  0  0
   -2.3333   -5.4292    0.0000 C   0  0  0  0  0  0  0  0  0  0  0  0
  2  3  1  0  0  0  0
  3  1  2  0  0  0  0
  4  5  1  0  0  0  0
  5  7  2  0  0  0  0
  6  1  1  0  0  0  0
  7  1  1  0  0  0  0
  8  4  2  0  0  0  0
  9 20  1  0  0  0  0
 10  2  2  0  0  0  0
 11  9  1  0  0  0  0
 12  6  2  0  0  0  0
 13  9  2  0  0  0  0
 14  3  1  0  0  0  0
 15  8  1  0  0  0  0
 16 10  1  0  0  0  0
 17 11  2  0  0  0  0
 18 11  1  0  0  0  0
 19  6  1  0  0  0  0
 20 27  1  0  0  0  0
 21 18  2  0  0  0  0
 22 17  1  0  0  0  0
 23 21  1  0  0  0  0
 24  8  1  0  0  0  0
 25 14  1  0  0  0  0
 26 15  1  0  0  0  0
 27 25  1  0  0  0  0
 28 19  1  0  0  0  0
 29 23  1  0  0  0  0
 30 24  2  0  0  0  0
 31 28  1  0  0  0  0
 32 30  1  0  0  0  0
  4  2  1  0  0  0  0
 15 16  2  0  0  0  0
 32 26  2  0  0  0  0
 23 22  2  0  0  0  0
M  END
>  <Code> (P7013060654)
P7013060654

>  <Number of H-Donors> (P7013060654)
1

>  <Number of H-Acceptors> (P7013060654)
6

>  <Number of Rotatable bonds> (P7013060654)
9

>  <CLogP> (P7013060654)
4.900000000000000e+000

>  <Number of Rings> (P7013060654)
4

>  <PSA> (P7013060654)
7.750000000000000e+001

$$$$

  -ISIS-  11102212342D

 21 23  0  0  0  0  0  0  0  0999 V2000
    0.8250    0.2000    0.0000 C   0  0  0  0  0  0  0  0  0  0  0  0
    0.0917    0.6208    0.0000 C   0  0  0  0  0  0  0  0  0  0  0  0
   -0.6208    0.2000    0.0000 C   0  0  0  0  0  0  0  0  0  0  0  0
    0.1000   -1.0375    0.0000 N   0  0  0  0  0  0  0  0  0  0  0  0
    0.8167   -0.6167    0.0000 C   0  0  0  0  0  0  0  0  0  0  0  0
   -0.6208   -0.6250    0.0000 C   0  0  0  0  0  0  0  0  0  0  0  0
    2.2542    0.1958    0.0000 N   0  0  3  0  0  0  0  0  0  0  0  0
    1.5417    0.6125    0.0000 C   0  0  0  0  0  0  0  0  0  0  0  0
   -1.3333    0.6125    0.0000 C   0  0  0  0  0  0  0  0  0  0  0  0
   -1.3333   -1.0417    0.0000 C   0  0  0  0  0  0  0  0  0  0  0  0
    0.0875    1.4458    0.0000 O   0  0  0  0  0  0  0  0  0  0  0  0
   -2.0458    0.2000    0.0000 C   0  0  0  0  0  0  0  0  0  0  0  0
    2.9667    0.6083    0.0000 C   0  0  0  0  0  0  0  0  0  0  0  0
    2.2500   -0.6292    0.0000 C   0  0  0  0  0  0  0  0  0  0  0  0
   -2.0458   -0.6292    0.0000 C   0  0  0  0  0  0  0  0  0  0  0  0
   -2.7583    0.6083    0.0000 Br  0  0  0  0  0  0  0  0  0  0  0  0
    3.6792    0.1958    0.0000 C   0  0  0  0  0  0  0  0  0  0  0  0
    2.9625   -1.0417    0.0000 C   0  0  0  0  0  0  0  0  0  0  0  0
    3.6792   -0.6292    0.0000 C   0  0  3  0  0  0  0  0  0  0  0  0
    1.5292   -1.0292    0.0000 C   0  0  0  0  0  0  0  0  0  0  0  0
    4.3917   -1.0500    0.0000 C   0  0  0  0  0  0  0  0  0  0  0  0
  2  1  2  0  0  0  0
  3  2  1  0  0  0  0
  4  5  2  0  0  0  0
  5  1  1  0  0  0  0
  6  4  1  0  0  0  0
  7  8  1  0  0  0  0
  8  1  1  0  0  0  0
  9  3  2  0  0  0  0
 10  6  2  0  0  0  0
 11  2  1  0  0  0  0
 12  9  1  0  0  0  0
 13  7  1  0  0  0  0
 14  7  1  0  0  0  0
 15 10  1  0  0  0  0
 16 12  1  0  0  0  0
 17 13  1  0  0  0  0
 18 14  1  0  0  0  0
 19 18  1  0  0  0  0
 20  5  1  0  0  0  0
 21 19  1  0  0  0  0
  3  6  1  0  0  0  0
 19 17  1  0  0  0  0
 12 15  2  0  0  0  0
M  END
>  <Code> (P7013060595)
P7013060595

>  <Number of H-Donors> (P7013060595)
1

>  <Number of H-Acceptors> (P7013060595)
3

>  <Number of Rotatable bonds> (P7013060595)
2

>  <CLogP> (P7013060595)
4.000000000000000e+000

>  <Number of Rings> (P7013060595)
3

>  <PSA> (P7013060595)
3.640000000000000e+001

$$$$

  -ISIS-  11102212342D

 23 24  0  0  0  0  0  0  0  0999 V2000
    1.6292   -4.6000    0.0000 C   0  0  0  0  0  0  0  0  0  0  0  0
    0.9667   -4.2167    0.0000 C   0  0  0  0  0  0  0  0  0  0  0  0
    0.3167   -4.6042    0.0000 C   0  0  0  0  0  0  0  0  0  0  0  0
   -0.3458   -4.2250    0.0000 C   0  0  0  0  0  0  0  0  0  0  0  0
    2.2917   -4.2125    0.0000 C   0  0  0  0  0  0  0  0  0  0  0  0
    0.9792   -5.7417    0.0000 N   0  0  0  0  0  0  0  0  0  0  0  0
    1.6375   -5.3625    0.0000 C   0  0  0  0  0  0  0  0  0  0  0  0
   -1.0000   -4.6042    0.0000 C   0  0  0  0  0  0  0  0  0  0  0  0
   -1.6583   -4.2292    0.0000 C   0  0  0  0  0  0  0  0  0  0  0  0
    0.3167   -5.3667    0.0000 C   0  0  0  0  0  0  0  0  0  0  0  0
    2.2875   -3.4542    0.0000 O   0  0  0  0  0  0  0  0  0  0  0  0
   -1.6583   -3.4667    0.0000 O   0  0  0  0  0  0  0  0  0  0  0  0
   -1.0000   -5.3667    0.0000 C   0  0  0  0  0  0  0  0  0  0  0  0
    0.9667   -3.4625    0.0000 N   0  0  0  0  0  0  0  0  0  0  0  0
   -0.3458   -5.7500    0.0000 C   0  0  0  0  0  0  0  0  0  0  0  0
    2.9542   -4.5917    0.0000 O   0  0  0  0  0  0  0  0  0  0  0  0
   -2.3208   -4.6042    0.0000 O   0  0  0  0  0  0  0  0  0  0  0  0
    1.6167   -1.5667    0.0000 O   0  0  0  0  0  0  0  0  0  0  0  0
    0.9667   -2.7042    0.0000 C   0  0  0  0  0  0  0  0  0  0  0  0
    1.6167   -2.3250    0.0000 C   0  0  0  0  0  0  0  0  0  0  0  0
    3.6125   -4.2042    0.0000 C   0  0  0  0  0  0  0  0  0  0  0  0
   -2.9750   -4.2292    0.0000 C   0  0  0  0  0  0  0  0  0  0  0  0
    4.2667   -4.5792    0.0000 C   0  0  0  0  0  0  0  0  0  0  0  0
  2  1  2  0  0  0  0
  3  2  1  0  0  0  0
  4  3  2  0  0  0  0
  5  1  1  0  0  0  0
  6  7  2  0  0  0  0
  7  1  1  0  0  0  0
  8  4  1  0  0  0  0
  9  8  1  0  0  0  0
 10  6  1  0  0  0  0
 11  5  2  0  0  0  0
 12  9  2  0  0  0  0
 13 15  1  0  0  0  0
 14  2  1  0  0  0  0
 15 10  2  0  0  0  0
 16  5  1  0  0  0  0
 17  9  1  0  0  0  0
 18 20  1  0  0  0  0
 19 14  1  0  0  0  0
 20 19  1  0  0  0  0
 21 16  1  0  0  0  0
 22 17  1  0  0  0  0
 23 21  1  0  0  0  0
  3 10  1  0  0  0  0
  8 13  2  0  0  0  0
M  END
>  <Code> (P7013060457)
P7013060457

>  <Number of H-Donors> (P7013060457)
2

>  <Number of H-Acceptors> (P7013060457)
7

>  <Number of Rotatable bonds> (P7013060457)
8

>  <CLogP> (P7013060457)
1.300000000000000e+000

>  <Number of Rings> (P7013060457)
2

>  <PSA> (P7013060457)
9.780000000000000e+001

$$$$

  -ISIS-  11102212342D

 20 22  0  0  0  0  0  0  0  0999 V2000
    0.7667   -6.7417    0.0000 C   0  0  0  0  0  0  0  0  0  0  0  0
    0.0625   -7.1625    0.0000 C   0  0  0  0  0  0  0  0  0  0  0  0
    0.7667   -5.9167    0.0000 N   0  0  0  0  0  0  0  0  0  0  0  0
    1.4875   -7.1542    0.0000 N   0  0  0  0  0  0  0  0  0  0  0  0
    0.0625   -7.9875    0.0000 C   0  0  0  0  0  0  0  0  0  0  0  0
    0.7792   -8.4000    0.0000 N   0  0  0  0  0  0  0  0  0  0  0  0
    1.4917   -7.9792    0.0000 C   0  0  0  0  0  0  0  0  0  0  0  0
   -0.6583   -6.7500    0.0000 C   0  0  0  0  0  0  0  0  0  0  0  0
    1.4792   -5.5042    0.0000 C   0  0  3  0  0  0  0  0  0  0  0  0
    2.1917   -5.9125    0.0000 C   0  0  0  0  0  0  0  0  0  0  0  0
   -0.6583   -8.4042    0.0000 C   0  0  0  0  0  0  0  0  0  0  0  0
   -1.3708   -7.1625    0.0000 C   0  0  0  0  0  0  0  0  0  0  0  0
   -1.3708   -7.9917    0.0000 C   0  0  0  0  0  0  0  0  0  0  0  0
   -2.0833   -6.7542    0.0000 Br  0  0  0  0  0  0  0  0  0  0  0  0
    1.4750   -4.6792    0.0000 C   0  0  0  0  0  0  0  0  0  0  0  0
    2.9042   -5.5000    0.0000 C   0  0  0  0  0  0  0  0  0  0  0  0
    2.1917   -6.7292    0.0000 C   0  0  0  0  0  0  0  0  0  0  0  0
    2.9167   -7.1417    0.0000 C   0  0  0  0  0  0  0  0  0  0  0  0
    3.6167   -5.9042    0.0000 C   0  0  0  0  0  0  0  0  0  0  0  0
    3.6292   -6.7167    0.0000 C   0  0  0  0  0  0  0  0  0  0  0  0
  2  1  1  0  0  0  0
  3  1  1  0  0  0  0
  4  1  2  0  0  0  0
  5  2  1  0  0  0  0
  6  7  2  0  0  0  0
  7  4  1  0  0  0  0
  8  2  2  0  0  0  0
  9  3  1  0  0  0  0
 10  9  1  0  0  0  0
 11  5  2  0  0  0  0
 12  8  1  0  0  0  0
 13 12  2  0  0  0  0
 14 12  1  0  0  0  0
 15  9  1  0  0  0  0
 16 10  2  0  0  0  0
 17 10  1  0  0  0  0
 18 17  2  0  0  0  0
 19 16  1  0  0  0  0
 20 18  1  0  0  0  0
  5  6  1  0  0  0  0
 13 11  1  0  0  0  0
 20 19  2  0  0  0  0
M  END
>  <Code> (P7013060067)
P7013060067

>  <Number of H-Donors> (P7013060067)
1

>  <Number of H-Acceptors> (P7013060067)
3

>  <Number of Rotatable bonds> (P7013060067)
3

>  <CLogP> (P7013060067)
4.000000000000000e+000

>  <Number of Rings> (P7013060067)
3

>  <PSA> (P7013060067)
3.780000000000000e+001

$$$$

  -ISIS-  11102212342D

 18 19  0  0  0  0  0  0  0  0999 V2000
   -0.9083   -7.2250    0.0000 C   0  0  0  0  0  0  0  0  0  0  0  0
   -0.1958   -6.8042    0.0000 C   0  0  0  0  0  0  0  0  0  0  0  0
    0.5167   -7.2167    0.0000 N   0  0  0  0  0  0  0  0  0  0  0  0
   -0.9083   -8.0500    0.0000 C   0  0  0  0  0  0  0  0  0  0  0  0
   -0.1875   -8.4625    0.0000 N   0  0  0  0  0  0  0  0  0  0  0  0
    0.5250   -8.0417    0.0000 C   0  0  0  0  0  0  0  0  0  0  0  0
   -1.6208   -6.8125    0.0000 C   0  0  0  0  0  0  0  0  0  0  0  0
   -0.2000   -5.9792    0.0000 N   0  0  0  0  0  0  0  0  0  0  0  0
   -1.6208   -8.4667    0.0000 C   0  0  0  0  0  0  0  0  0  0  0  0
   -2.3333   -7.2250    0.0000 C   0  0  0  0  0  0  0  0  0  0  0  0
   -2.3333   -8.0542    0.0000 C   0  0  0  0  0  0  0  0  0  0  0  0
   -3.0458   -6.8167    0.0000 Br  0  0  0  0  0  0  0  0  0  0  0  0
    1.9250   -2.2625    0.0000 O   0  0  0  0  0  0  0  0  0  0  0  0
    0.5125   -5.5667    0.0000 C   0  0  0  0  0  0  0  0  0  0  0  0
    1.9292   -3.0875    0.0000 C   0  0  0  0  0  0  0  0  0  0  0  0
    0.5042   -4.7417    0.0000 C   0  0  0  0  0  0  0  0  0  0  0  0
    1.2167   -3.5000    0.0000 C   0  0  0  0  0  0  0  0  0  0  0  0
    1.2167   -4.3167    0.0000 C   0  0  0  0  0  0  0  0  0  0  0  0
  2  1  1  0  0  0  0
  3  2  2  0  0  0  0
  4  1  1  0  0  0  0
  5  4  1  0  0  0  0
  6  5  2  0  0  0  0
  7  1  2  0  0  0  0
  8  2  1  0  0  0  0
  9  4  2  0  0  0  0
 10  7  1  0  0  0  0
 11 10  2  0  0  0  0
 12 10  1  0  0  0  0
 13 15  1  0  0  0  0
 14  8  1  0  0  0  0
 15 17  1  0  0  0  0
 16 14  1  0  0  0  0
 17 18  1  0  0  0  0
 18 16  1  0  0  0  0
 11  9  1  0  0  0  0
  6  3  1  0  0  0  0
M  END
>  <Code> (P7013060064)
P7013060064

>  <Number of H-Donors> (P7013060064)
2

>  <Number of H-Acceptors> (P7013060064)
4

>  <Number of Rotatable bonds> (P7013060064)
6

>  <CLogP> (P7013060064)
2.600000000000000e+000

>  <Number of Rings> (P7013060064)
2

>  <PSA> (P7013060064)
5.800000000000000e+001

$$$$

  -ISIS-  11102212342D

 25 29  0  0  0  0  0  0  0  0999 V2000
    2.6125   -0.4917    0.0000 C   0  0  0  0  0  0  0  0  0  0  0  0
    1.8792   -0.8875    0.0000 C   0  0  0  0  0  0  0  0  0  0  0  0
    3.3042   -0.9375    0.0000 N   0  0  3  0  0  0  0  0  0  0  0  0
    1.8500   -1.7125    0.0000 C   0  0  0  0  0  0  0  0  0  0  0  0
    2.8167    0.3083    0.0000 N   0  0  0  0  0  0  0  0  0  0  0  0
    2.5500   -2.1500    0.0000 N   0  0  0  0  0  0  0  0  0  0  0  0
    1.1042   -0.6000    0.0000 C   0  0  0  0  0  0  0  0  0  0  0  0
    0.5917   -1.2542    0.0000 C   0  0  0  0  0  0  0  0  0  0  0  0
    1.0542   -1.9375    0.0000 S   0  0  0  0  0  0  0  0  0  0  0  0
    3.2792   -1.7667    0.0000 C   0  0  0  0  0  0  0  0  0  0  0  0
    3.6417    0.3583    0.0000 N   0  0  0  0  0  0  0  0  0  0  0  0
    3.9417   -0.4042    0.0000 C   0  0  0  0  0  0  0  0  0  0  0  0
    0.7917    0.1625    0.0000 C   0  0  0  0  0  0  0  0  0  0  0  0
   -0.2250   -1.1417    0.0000 C   0  0  0  0  0  0  0  0  0  0  0  0
    4.7417   -0.6125    0.0000 C   0  0  0  0  0  0  0  0  0  0  0  0
   -0.0208    0.2833    0.0000 C   0  0  0  0  0  0  0  0  0  0  0  0
    4.9542   -1.4042    0.0000 C   0  0  0  0  0  0  0  0  0  0  0  0
   -0.5333   -0.3667    0.0000 C   0  0  3  0  0  0  0  0  0  0  0  0
    5.7417   -1.6167    0.0000 C   0  0  0  0  0  0  0  0  0  0  0  0
    5.9542   -2.4125    0.0000 C   0  0  0  0  0  0  0  0  0  0  0  0
    6.3167   -1.0417    0.0000 C   0  0  0  0  0  0  0  0  0  0  0  0
   -1.3458   -0.2542    0.0000 C   0  0  0  0  0  0  0  0  0  0  0  0
    7.1042   -1.2500    0.0000 C   0  0  0  0  0  0  0  0  0  0  0  0
    6.7417   -2.6250    0.0000 C   0  0  0  0  0  0  0  0  0  0  0  0
    7.3250   -2.0417    0.0000 C   0  0  0  0  0  0  0  0  0  0  0  0
  2  1  1  0  0  0  0
  3  1  1  0  0  0  0
  4  2  2  0  0  0  0
  5  1  2  0  0  0  0
  6 10  2  0  0  0  0
  7  2  1  0  0  0  0
  8  7  2  0  0  0  0
  9  4  1  0  0  0  0
 10  3  1  0  0  0  0
 11  5  1  0  0  0  0
 12  3  1  0  0  0  0
 13  7  1  0  0  0  0
 14  8  1  0  0  0  0
 15 12  1  0  0  0  0
 16 13  1  0  0  0  0
 17 15  1  0  0  0  0
 18 16  1  0  0  0  0
 19 17  1  0  0  0  0
 20 19  2  0  0  0  0
 21 19  1  0  0  0  0
 22 18  1  0  0  0  0
 23 21  2  0  0  0  0
 24 20  1  0  0  0  0
 25 23  1  0  0  0  0
 12 11  2  0  0  0  0
  4  6  1  0  0  0  0
  8  9  1  0  0  0  0
 14 18  1  0  0  0  0
 24 25  2  0  0  0  0
M  END
>  <Code> (P7013050359)
P7013050359

>  <Number of H-Donors> (P7013050359)
0

>  <Number of H-Acceptors> (P7013050359)
3

>  <Number of Rotatable bonds> (P7013050359)
3

>  <CLogP> (P7013050359)
4.800000000000000e+000

>  <Number of Rings> (P7013050359)
5

>  <PSA> (P7013050359)
7.130000000000000e+001

$$$$

  -ISIS-  11102212342D

 28 31  0  0  0  0  0  0  0  0999 V2000
    1.2250   -1.3042    0.0000 C   0  0  0  0  0  0  0  0  0  0  0  0
    1.6250   -0.5917    0.0000 C   0  0  0  0  0  0  0  0  0  0  0  0
    2.4542   -0.5792    0.0000 N   0  0  3  0  0  0  0  0  0  0  0  0
    1.6500   -2.0292    0.0000 C   0  0  0  0  0  0  0  0  0  0  0  0
    0.4125   -1.4917    0.0000 C   0  0  0  0  0  0  0  0  0  0  0  0
    2.4750   -2.0167    0.0000 N   0  0  0  0  0  0  0  0  0  0  0  0
    2.8750   -1.2917    0.0000 C   0  0  0  0  0  0  0  0  0  0  0  0
    1.1000   -2.6417    0.0000 S   0  0  0  0  0  0  0  0  0  0  0  0
    0.3375   -2.3292    0.0000 C   0  0  0  0  0  0  0  0  0  0  0  0
    2.8625    0.1458    0.0000 C   0  0  0  0  0  0  0  0  0  0  0  0
    3.6875    0.1458    0.0000 C   0  0  0  0  0  0  0  0  0  0  0  0
   -0.2625   -1.0167    0.0000 C   0  0  0  0  0  0  0  0  0  0  0  0
    5.3500   -1.2667    0.0000 C   0  0  0  0  0  0  0  0  0  0  0  0
    1.2000    0.1208    0.0000 O   0  0  0  0  0  0  0  0  0  0  0  0
    6.0375   -0.8167    0.0000 O   0  0  0  0  0  0  0  0  0  0  0  0
    4.1042   -0.5667    0.0000 N   0  0  0  0  0  0  0  0  0  0  0  0
    5.5667   -2.0667    0.0000 C   0  0  0  0  0  0  0  0  0  0  0  0
    6.6750   -1.3292    0.0000 C   0  0  0  0  0  0  0  0  0  0  0  0
    6.3875   -2.1042    0.0000 C   0  0  0  0  0  0  0  0  0  0  0  0
    4.0917    0.8708    0.0000 O   0  0  0  0  0  0  0  0  0  0  0  0
   -0.1958   -0.1917    0.0000 C   0  0  0  0  0  0  0  0  0  0  0  0
   -1.0125   -1.3667    0.0000 C   0  0  0  0  0  0  0  0  0  0  0  0
    4.9292   -0.5542    0.0000 C   0  0  0  0  0  0  0  0  0  0  0  0
   -1.6250   -0.0667    0.0000 C   0  0  0  0  0  0  0  0  0  0  0  0
   -0.8708    0.2833    0.0000 C   0  0  0  0  0  0  0  0  0  0  0  0
   -1.6958   -0.9042    0.0000 C   0  0  0  0  0  0  0  0  0  0  0  0
   -2.3083    0.4083    0.0000 O   0  0  0  0  0  0  0  0  0  0  0  0
   -2.2333    1.2250    0.0000 C   0  0  0  0  0  0  0  0  0  0  0  0
  2  1  1  0  0  0  0
  3  2  1  0  0  0  0
  4  1  2  0  0  0  0
  5  1  1  0  0  0  0
  6  4  1  0  0  0  0
  7  6  2  0  0  0  0
  8  4  1  0  0  0  0
  9  5  2  0  0  0  0
 10  3  1  0  0  0  0
 11 10  1  0  0  0  0
 12  5  1  0  0  0  0
 13 23  1  0  0  0  0
 14  2  2  0  0  0  0
 15 13  1  0  0  0  0
 16 11  1  0  0  0  0
 17 13  2  0  0  0  0
 18 15  1  0  0  0  0
 19 17  1  0  0  0  0
 20 11  2  0  0  0  0
 21 12  2  0  0  0  0
 22 12  1  0  0  0  0
 23 16  1  0  0  0  0
 24 26  1  0  0  0  0
 25 21  1  0  0  0  0
 26 22  2  0  0  0  0
 27 24  1  0  0  0  0
 28 27  1  0  0  0  0
  9  8  1  0  0  0  0
  7  3  1  0  0  0  0
 24 25  2  0  0  0  0
 19 18  2  0  0  0  0
M  END
>  <Code> (P7013050280)
P7013050280

>  <Number of H-Donors> (P7013050280)
1

>  <Number of H-Acceptors> (P7013050280)
4

>  <Number of Rotatable bonds> (P7013050280)
6

>  <CLogP> (P7013050280)
2.100000000000000e+000

>  <Number of Rings> (P7013050280)
4

>  <PSA> (P7013050280)
1.124000000000000e+002

$$$$

  -ISIS-  11102212342D

 25 27  0  0  0  0  0  0  0  0999 V2000
    1.8042   -0.8792    0.0000 C   0  0  0  0  0  0  0  0  0  0  0  0
    2.2292   -1.6042    0.0000 C   0  0  0  0  0  0  0  0  0  0  0  0
    0.9917   -1.0667    0.0000 C   0  0  0  0  0  0  0  0  0  0  0  0
    0.9167   -1.8917    0.0000 C   0  0  0  0  0  0  0  0  0  0  0  0
    3.0417   -0.1542    0.0000 N   0  0  3  0  0  0  0  0  0  0  0  0
    1.6792   -2.2167    0.0000 S   0  0  0  0  0  0  0  0  0  0  0  0
    2.2042   -0.1667    0.0000 C   0  0  0  0  0  0  0  0  0  0  0  0
    3.0542   -1.5917    0.0000 N   0  0  0  0  0  0  0  0  0  0  0  0
    3.4542   -0.8667    0.0000 C   0  0  0  0  0  0  0  0  0  0  0  0
    0.1667   -2.2417    0.0000 C   0  0  0  0  0  0  0  0  0  0  0  0
    3.4417    0.5708    0.0000 C   0  0  0  0  0  0  0  0  0  0  0  0
    4.2667    0.5750    0.0000 C   0  0  0  0  0  0  0  0  0  0  0  0
    4.6667    1.2958    0.0000 C   0  0  0  0  0  0  0  0  0  0  0  0
    5.4917    1.3000    0.0000 C   0  0  0  0  0  0  0  0  0  0  0  0
    1.7792    0.5458    0.0000 O   0  0  0  0  0  0  0  0  0  0  0  0
    0.1000   -3.0667    0.0000 O   0  0  0  0  0  0  0  0  0  0  0  0
    4.6792   -0.1375    0.0000 C   0  0  0  0  0  0  0  0  0  0  0  0
    5.9167    0.5875    0.0000 C   0  0  0  0  0  0  0  0  0  0  0  0
    0.3167   -0.5917    0.0000 C   0  0  0  0  0  0  0  0  0  0  0  0
    4.2417    2.0000    0.0000 Cl  0  0  0  0  0  0  0  0  0  0  0  0
   -0.5083   -1.7667    0.0000 O   0  0  0  0  0  0  0  0  0  0  0  0
    5.5042   -0.1292    0.0000 C   0  0  0  0  0  0  0  0  0  0  0  0
    6.7417    0.5958    0.0000 Cl  0  0  0  0  0  0  0  0  0  0  0  0
   -1.2583   -2.1167    0.0000 C   0  0  0  0  0  0  0  0  0  0  0  0
   -1.9333   -1.6417    0.0000 C   0  0  0  0  0  0  0  0  0  0  0  0
  2  1  2  0  0  0  0
  3  1  1  0  0  0  0
  4  3  2  0  0  0  0
  5  7  1  0  0  0  0
  6  2  1  0  0  0  0
  7  1  1  0  0  0  0
  8  2  1  0  0  0  0
  9  5  1  0  0  0  0
 10  4  1  0  0  0  0
 11  5  1  0  0  0  0
 12 11  1  0  0  0  0
 13 12  1  0  0  0  0
 14 13  2  0  0  0  0
 15  7  2  0  0  0  0
 16 10  2  0  0  0  0
 17 12  2  0  0  0  0
 18 22  2  0  0  0  0
 19  3  1  0  0  0  0
 20 13  1  0  0  0  0
 21 10  1  0  0  0  0
 22 17  1  0  0  0  0
 23 18  1  0  0  0  0
 24 21  1  0  0  0  0
 25 24  1  0  0  0  0
  6  4  1  0  0  0  0
  9  8  2  0  0  0  0
 18 14  1  0  0  0  0
M  END
>  <Code> (P7013050059)
P7013050059

>  <Number of H-Donors> (P7013050059)
0

>  <Number of H-Acceptors> (P7013050059)
4

>  <Number of Rotatable bonds> (P7013050059)
5

>  <CLogP> (P7013050059)
4.600000000000000e+000

>  <Number of Rings> (P7013050059)
3

>  <PSA> (P7013050059)
8.719999999999999e+001

$$$$

  -ISIS-  11102212342D

 25 27  0  0  0  0  0  0  0  0999 V2000
   -0.6208    0.0750    0.0000 C   0  0  0  0  0  0  0  0  0  0  0  0
    0.6042    0.8000    0.0000 N   0  0  3  0  0  0  0  0  0  0  0  0
   -0.2000   -0.6542    0.0000 C   0  0  0  0  0  0  0  0  0  0  0  0
   -0.2208    0.7833    0.0000 C   0  0  0  0  0  0  0  0  0  0  0  0
    0.6250   -0.6375    0.0000 N   0  0  0  0  0  0  0  0  0  0  0  0
   -1.4375   -0.1167    0.0000 C   0  0  0  0  0  0  0  0  0  0  0  0
    1.0250    0.0833    0.0000 C   0  0  0  0  0  0  0  0  0  0  0  0
   -0.7500   -1.2625    0.0000 S   0  0  0  0  0  0  0  0  0  0  0  0
   -1.5125   -0.9375    0.0000 C   0  0  0  0  0  0  0  0  0  0  0  0
    1.8375    1.5250    0.0000 C   0  0  0  0  0  0  0  0  0  0  0  0
    1.0125    1.5208    0.0000 C   0  0  3  0  0  0  0  0  0  0  0  0
    2.2500    0.8208    0.0000 O   0  0  0  0  0  0  0  0  0  0  0  0
   -0.6500    1.5000    0.0000 O   0  0  0  0  0  0  0  0  0  0  0  0
    2.2375    2.2458    0.0000 O   0  0  0  0  0  0  0  0  0  0  0  0
   -2.2625   -1.2792    0.0000 C   0  0  0  0  0  0  0  0  0  0  0  0
    3.0792    0.8208    0.0000 C   0  0  3  0  0  0  0  0  0  0  0  0
    0.5875    2.2250    0.0000 C   0  0  0  0  0  0  0  0  0  0  0  0
   -2.3208   -2.1000    0.0000 C   0  0  0  0  0  0  0  0  0  0  0  0
   -2.9333   -0.8125    0.0000 C   0  0  0  0  0  0  0  0  0  0  0  0
    3.5000    0.1083    0.0000 C   0  0  0  0  0  0  0  0  0  0  0  0
    3.4875    1.5458    0.0000 C   0  0  0  0  0  0  0  0  0  0  0  0
    3.1000   -0.6000    0.0000 C   0  0  0  0  0  0  0  0  0  0  0  0
   -3.6750   -1.1542    0.0000 C   0  0  0  0  0  0  0  0  0  0  0  0
   -3.0708   -2.4542    0.0000 C   0  0  0  0  0  0  0  0  0  0  0  0
   -3.7500   -1.9792    0.0000 C   0  0  0  0  0  0  0  0  0  0  0  0
  2  4  1  0  0  0  0
  3  1  2  0  0  0  0
  4  1  1  0  0  0  0
  5  3  1  0  0  0  0
  6  1  1  0  0  0  0
  7  2  1  0  0  0  0
  8  3  1  0  0  0  0
  9  6  2  0  0  0  0
 10 11  1  0  0  0  0
 11  2  1  0  0  0  0
 12 10  1  0  0  0  0
 13  4  2  0  0  0  0
 14 10  2  0  0  0  0
 15  9  1  0  0  0  0
 16 12  1  0  0  0  0
 17 11  1  0  0  0  0
 18 15  1  0  0  0  0
 19 15  2  0  0  0  0
 20 16  1  0  0  0  0
 21 16  1  0  0  0  0
 22 20  1  0  0  0  0
 23 19  1  0  0  0  0
 24 18  2  0  0  0  0
 25 23  2  0  0  0  0
  8  9  1  0  0  0  0
  5  7  2  0  0  0  0
 24 25  1  0  0  0  0
M  END
>  <Code> (P7012340044)
P7012340044

>  <Number of H-Donors> (P7012340044)
0

>  <Number of H-Acceptors> (P7012340044)
4

>  <Number of Rotatable bonds> (P7012340044)
6

>  <CLogP> (P7012340044)
4.000000000000000e+000

>  <Number of Rings> (P7012340044)
3

>  <PSA> (P7012340044)
8.719999999999999e+001

$$$$

  -ISIS-  11102212342D

 27 29  0  0  0  0  0  0  0  0999 V2000
    5.0167   -3.8250    0.0000 C   0  0  0  0  0  0  0  0  0  0  0  0
    5.7292   -4.2292    0.0000 N   0  0  0  0  0  0  0  0  0  0  0  0
    5.7417   -5.0667    0.0000 C   0  0  0  0  0  0  0  0  0  0  0  0
    4.3042   -4.2417    0.0000 C   0  0  0  0  0  0  0  0  0  0  0  0
    5.0167   -5.4875    0.0000 N   0  0  0  0  0  0  0  0  0  0  0  0
    5.0167   -3.0000    0.0000 N   0  0  3  0  0  0  0  0  0  0  0  0
    4.3042   -5.0667    0.0000 C   0  0  0  0  0  0  0  0  0  0  0  0
    6.4750   -5.4750    0.0000 C   0  0  0  0  0  0  0  0  0  0  0  0
    7.1417   -1.7667    0.0000 N   0  0  3  0  0  0  0  0  0  0  0  0
    5.7250   -2.6000    0.0000 C   0  0  3  0  0  0  0  0  0  0  0  0
    5.7250   -1.7542    0.0000 C   0  0  0  0  0  0  0  0  0  0  0  0
    6.4375   -2.9875    0.0000 C   0  0  0  0  0  0  0  0  0  0  0  0
    7.1792   -5.0542    0.0000 C   0  0  0  0  0  0  0  0  0  0  0  0
    6.4375   -1.3500    0.0000 C   0  0  0  0  0  0  0  0  0  0  0  0
    7.1417   -2.6000    0.0000 C   0  0  0  0  0  0  0  0  0  0  0  0
    7.9000   -5.4625    0.0000 C   0  0  0  0  0  0  0  0  0  0  0  0
    3.5750   -3.8375    0.0000 C   0  0  0  0  0  0  0  0  0  0  0  0
    1.0167    0.1250    0.0000 Cl  0  0  0  0  0  0  0  0  0  0  0  0
    4.3042   -2.6000    0.0000 C   0  0  0  0  0  0  0  0  0  0  0  0
    7.8625   -1.3625    0.0000 C   0  0  0  0  0  0  0  0  0  0  0  0
    6.4750   -6.3000    0.0000 C   0  0  0  0  0  0  0  0  0  0  0  0
    3.5750   -5.4875    0.0000 C   0  0  0  0  0  0  0  0  0  0  0  0
    7.1917   -6.7125    0.0000 C   0  0  0  0  0  0  0  0  0  0  0  0
    7.9125   -6.2542    0.0000 C   0  0  0  0  0  0  0  0  0  0  0  0
    8.6125   -5.0417    0.0000 C   0  0  0  0  0  0  0  0  0  0  0  0
    2.8542   -4.2417    0.0000 C   0  0  0  0  0  0  0  0  0  0  0  0
    2.8542   -5.0667    0.0000 C   0  0  0  0  0  0  0  0  0  0  0  0
  2  1  2  0  0  0  0
  3  2  1  0  0  0  0
  4  1  1  0  0  0  0
  5  7  1  0  0  0  0
  6  1  1  0  0  0  0
  7  4  1  0  0  0  0
  8  3  1  0  0  0  0
  9 15  1  0  0  0  0
 10  6  1  0  0  0  0
 11 10  1  0  0  0  0
 12 10  1  0  0  0  0
 13  8  1  0  0  0  0
 14 11  1  0  0  0  0
 15 12  1  0  0  0  0
 16 13  2  0  0  0  0
 17  4  2  0  0  0  0
 19  6  1  0  0  0  0
 20  9  1  0  0  0  0
 21  8  2  0  0  0  0
 22  7  2  0  0  0  0
 23 21  1  0  0  0  0
 24 23  2  0  0  0  0
 25 16  1  0  0  0  0
 26 17  1  0  0  0  0
 27 26  2  0  0  0  0
  5  3  2  0  0  0  0
  9 14  1  0  0  0  0
 27 22  1  0  0  0  0
 24 16  1  0  0  0  0
M  END
>  <Code> (P7012270881)
P7012270881

>  <Saltdata> (P7012270881)
HCl

>  <Number of H-Donors> (P7012270881)
0

>  <Number of H-Acceptors> (P7012270881)
4

>  <Number of Rotatable bonds> (P7012270881)
3

>  <CLogP> (P7012270881)
4.100000000000000e+000

>  <Number of Rings> (P7012270881)
4

>  <PSA> (P7012270881)
3.230000000000000e+001

$$$$

  -ISIS-  11102212342D

 28 30  0  0  0  0  0  0  0  0999 V2000
    0.3417   -2.0167    0.0000 C   0  0  0  0  0  0  0  0  0  0  0  0
   -0.3583   -2.4375    0.0000 C   0  0  0  0  0  0  0  0  0  0  0  0
    1.0667   -2.4250    0.0000 C   0  0  0  0  0  0  0  0  0  0  0  0
   -0.3583   -3.2625    0.0000 C   0  0  0  0  0  0  0  0  0  0  0  0
    0.3542   -3.6750    0.0000 N   0  0  0  0  0  0  0  0  0  0  0  0
    1.7792   -2.0125    0.0000 C   0  0  0  0  0  0  0  0  0  0  0  0
    1.0667   -3.2542    0.0000 C   0  0  0  0  0  0  0  0  0  0  0  0
    0.3417   -1.1917    0.0000 N   0  0  0  0  0  0  0  0  0  0  0  0
   -1.0708   -3.6750    0.0000 C   0  0  0  0  0  0  0  0  0  0  0  0
    1.0667    0.0458    0.0000 C   0  0  0  0  0  0  0  0  0  0  0  0
    1.0667    0.8750    0.0000 C   0  0  0  0  0  0  0  0  0  0  0  0
   -1.0708   -2.0250    0.0000 C   0  0  0  0  0  0  0  0  0  0  0  0
    0.3417   -0.3667    0.0000 C   0  0  0  0  0  0  0  0  0  0  0  0
   -1.7833   -3.2625    0.0000 C   0  0  0  0  0  0  0  0  0  0  0  0
    0.3417    1.2875    0.0000 C   0  0  0  0  0  0  0  0  0  0  0  0
    1.7792   -1.1875    0.0000 O   0  0  0  0  0  0  0  0  0  0  0  0
   -1.7833   -2.4375    0.0000 C   0  0  0  0  0  0  0  0  0  0  0  0
   -0.3708    0.8750    0.0000 C   0  0  0  0  0  0  0  0  0  0  0  0
   -0.3708    0.0458    0.0000 C   0  0  0  0  0  0  0  0  0  0  0  0
    2.4917   -2.4167    0.0000 O   0  0  0  0  0  0  0  0  0  0  0  0
    1.7792    1.2958    0.0000 O   0  0  0  0  0  0  0  0  0  0  0  0
    0.3375    2.1125    0.0000 O   0  0  0  0  0  0  0  0  0  0  0  0
   -1.0708   -4.5000    0.0000 C   0  0  0  0  0  0  0  0  0  0  0  0
   -2.5083   -2.0250    0.0000 C   0  0  0  0  0  0  0  0  0  0  0  0
    3.2042   -2.0000    0.0000 C   0  0  0  0  0  0  0  0  0  0  0  0
    2.4917    0.8833    0.0000 C   0  0  0  0  0  0  0  0  0  0  0  0
   -0.3833    2.5250    0.0000 C   0  0  0  0  0  0  0  0  0  0  0  0
    3.9292   -2.4125    0.0000 C   0  0  0  0  0  0  0  0  0  0  0  0
  2  1  1  0  0  0  0
  3  1  2  0  0  0  0
  4  2  1  0  0  0  0
  5  7  2  0  0  0  0
  6  3  1  0  0  0  0
  7  3  1  0  0  0  0
  8  1  1  0  0  0  0
  9  4  2  0  0  0  0
 10 13  1  0  0  0  0
 11 10  2  0  0  0  0
 12  2  2  0  0  0  0
 13  8  1  0  0  0  0
 14 17  2  0  0  0  0
 15 18  2  0  0  0  0
 16  6  2  0  0  0  0
 17 12  1  0  0  0  0
 18 19  1  0  0  0  0
 19 13  2  0  0  0  0
 20  6  1  0  0  0  0
 21 11  1  0  0  0  0
 22 15  1  0  0  0  0
 23  9  1  0  0  0  0
 24 17  1  0  0  0  0
 25 20  1  0  0  0  0
 26 21  1  0  0  0  0
 27 22  1  0  0  0  0
 28 25  1  0  0  0  0
  4  5  1  0  0  0  0
 14  9  1  0  0  0  0
 11 15  1  0  0  0  0
M  END
>  <Code> (P7012120302)
P7012120302

>  <Number of H-Donors> (P7012120302)
1

>  <Number of H-Acceptors> (P7012120302)
6

>  <Number of Rotatable bonds> (P7012120302)
7

>  <CLogP> (P7012120302)
4.700000000000000e+000

>  <Number of Rings> (P7012120302)
3

>  <PSA> (P7012120302)
6.970000000000000e+001

$$$$

  -ISIS-  11102212342D

 26 29  0  0  0  0  0  0  0  0999 V2000
    0.6625    0.3833    0.0000 C   0  0  0  0  0  0  0  0  0  0  0  0
    0.6667   -0.4417    0.0000 C   0  0  0  0  0  0  0  0  0  0  0  0
   -0.0458   -0.8625    0.0000 N   0  0  0  0  0  0  0  0  0  0  0  0
   -0.0583    0.7958    0.0000 C   0  0  0  0  0  0  0  0  0  0  0  0
   -0.7625    0.3750    0.0000 C   0  0  0  0  0  0  0  0  0  0  0  0
   -0.7625   -0.4500    0.0000 C   0  0  0  0  0  0  0  0  0  0  0  0
    1.3750    0.8000    0.0000 C   0  0  0  0  0  0  0  0  0  0  0  0
    1.3667    1.6250    0.0000 N   0  0  3  0  0  0  0  0  0  0  0  0
    1.3542    3.2750    0.0000 N   0  0  3  0  0  0  0  0  0  0  0  0
   -1.4833    0.7875    0.0000 C   0  0  0  0  0  0  0  0  0  0  0  0
    1.3792   -0.8542    0.0000 C   0  0  0  0  0  0  0  0  0  0  0  0
   -1.4833   -0.8667    0.0000 C   0  0  0  0  0  0  0  0  0  0  0  0
   -0.0583    1.6208    0.0000 O   0  0  0  0  0  0  0  0  0  0  0  0
    2.0792    2.0458    0.0000 C   0  0  0  0  0  0  0  0  0  0  0  0
    0.6500    2.0375    0.0000 C   0  0  0  0  0  0  0  0  0  0  0  0
    2.0792    2.8708    0.0000 C   0  0  0  0  0  0  0  0  0  0  0  0
    0.6417    2.8625    0.0000 C   0  0  0  0  0  0  0  0  0  0  0  0
   -2.1958    0.3708    0.0000 C   0  0  0  0  0  0  0  0  0  0  0  0
   -2.1958   -0.4542    0.0000 C   0  0  0  0  0  0  0  0  0  0  0  0
    1.3542    4.0917    0.0000 C   0  0  0  0  0  0  0  0  0  0  0  0
    1.3792   -1.6792    0.0000 C   0  0  0  0  0  0  0  0  0  0  0  0
    2.0875   -0.4375    0.0000 C   0  0  0  0  0  0  0  0  0  0  0  0
   -2.9083    0.7833    0.0000 C   0  0  0  0  0  0  0  0  0  0  0  0
    2.8042   -0.8417    0.0000 C   0  0  0  0  0  0  0  0  0  0  0  0
    2.1000   -2.0875    0.0000 C   0  0  0  0  0  0  0  0  0  0  0  0
    2.8125   -1.6667    0.0000 C   0  0  0  0  0  0  0  0  0  0  0  0
  2  1  1  0  0  0  0
  3  2  2  0  0  0  0
  4  1  2  0  0  0  0
  5  4  1  0  0  0  0
  6  5  1  0  0  0  0
  7  1  1  0  0  0  0
  8  7  1  0  0  0  0
  9 17  1  0  0  0  0
 10  5  2  0  0  0  0
 11  2  1  0  0  0  0
 12  6  2  0  0  0  0
 13  4  1  0  0  0  0
 14  8  1  0  0  0  0
 15  8  1  0  0  0  0
 16 14  1  0  0  0  0
 17 15  1  0  0  0  0
 18 10  1  0  0  0  0
 19 18  2  0  0  0  0
 20  9  1  0  0  0  0
 21 11  2  0  0  0  0
 22 11  1  0  0  0  0
 23 18  1  0  0  0  0
 24 22  2  0  0  0  0
 25 21  1  0  0  0  0
 26 24  1  0  0  0  0
  6  3  1  0  0  0  0
  9 16  1  0  0  0  0
 12 19  1  0  0  0  0
 26 25  2  0  0  0  0
M  END
>  <Code> (P7011830192)
P7011830192

>  <Number of H-Donors> (P7011830192)
1

>  <Number of H-Acceptors> (P7011830192)
4

>  <Number of Rotatable bonds> (P7011830192)
3

>  <CLogP> (P7011830192)
4.200000000000000e+000

>  <Number of Rings> (P7011830192)
4

>  <PSA> (P7011830192)
3.960000000000000e+001

$$$$

  -ISIS-  11102212342D

 25 28  0  0  0  0  0  0  0  0999 V2000
    0.6625    0.3833    0.0000 C   0  0  0  0  0  0  0  0  0  0  0  0
    0.6667   -0.4417    0.0000 C   0  0  0  0  0  0  0  0  0  0  0  0
   -0.0458   -0.8625    0.0000 N   0  0  0  0  0  0  0  0  0  0  0  0
   -0.0583    0.7958    0.0000 C   0  0  0  0  0  0  0  0  0  0  0  0
   -0.7625    0.3750    0.0000 C   0  0  0  0  0  0  0  0  0  0  0  0
   -0.7625   -0.4500    0.0000 C   0  0  0  0  0  0  0  0  0  0  0  0
    1.3750    0.8000    0.0000 C   0  0  0  0  0  0  0  0  0  0  0  0
    1.3667    1.6250    0.0000 N   0  0  3  0  0  0  0  0  0  0  0  0
   -1.4833    0.7875    0.0000 C   0  0  0  0  0  0  0  0  0  0  0  0
    1.3792   -0.8542    0.0000 C   0  0  0  0  0  0  0  0  0  0  0  0
   -1.4833   -0.8667    0.0000 C   0  0  0  0  0  0  0  0  0  0  0  0
    1.3542    3.2750    0.0000 O   0  0  0  0  0  0  0  0  0  0  0  0
   -0.0583    1.6208    0.0000 O   0  0  0  0  0  0  0  0  0  0  0  0
   -2.1958    0.3708    0.0000 C   0  0  0  0  0  0  0  0  0  0  0  0
   -2.1958   -0.4542    0.0000 C   0  0  0  0  0  0  0  0  0  0  0  0
    2.0792    2.0458    0.0000 C   0  0  0  0  0  0  0  0  0  0  0  0
    0.6500    2.0375    0.0000 C   0  0  0  0  0  0  0  0  0  0  0  0
    2.0792    2.8708    0.0000 C   0  0  0  0  0  0  0  0  0  0  0  0
    0.6417    2.8625    0.0000 C   0  0  0  0  0  0  0  0  0  0  0  0
    2.0875   -0.4375    0.0000 C   0  0  0  0  0  0  0  0  0  0  0  0
    1.3792   -1.6792    0.0000 C   0  0  0  0  0  0  0  0  0  0  0  0
   -2.9083    0.7833    0.0000 C   0  0  0  0  0  0  0  0  0  0  0  0
    2.1000   -2.0875    0.0000 C   0  0  0  0  0  0  0  0  0  0  0  0
    2.8042   -0.8417    0.0000 C   0  0  0  0  0  0  0  0  0  0  0  0
    2.8125   -1.6667    0.0000 C   0  0  0  0  0  0  0  0  0  0  0  0
  2  1  1  0  0  0  0
  3  2  2  0  0  0  0
  4  1  2  0  0  0  0
  5  4  1  0  0  0  0
  6  5  1  0  0  0  0
  7  1  1  0  0  0  0
  8  7  1  0  0  0  0
  9  5  2  0  0  0  0
 10  2  1  0  0  0  0
 11  6  2  0  0  0  0
 12 19  1  0  0  0  0
 13  4  1  0  0  0  0
 14  9  1  0  0  0  0
 15 14  2  0  0  0  0
 16  8  1  0  0  0  0
 17  8  1  0  0  0  0
 18 16  1  0  0  0  0
 19 17  1  0  0  0  0
 20 10  1  0  0  0  0
 21 10  2  0  0  0  0
 22 14  1  0  0  0  0
 23 21  1  0  0  0  0
 24 20  2  0  0  0  0
 25 23  2  0  0  0  0
  6  3  1  0  0  0  0
 12 18  1  0  0  0  0
 11 15  1  0  0  0  0
 25 24  1  0  0  0  0
M  END
>  <Code> (P7011830191)
P7011830191

>  <Number of H-Donors> (P7011830191)
1

>  <Number of H-Acceptors> (P7011830191)
4

>  <Number of Rotatable bonds> (P7011830191)
3

>  <CLogP> (P7011830191)
4.000000000000000e+000

>  <Number of Rings> (P7011830191)
4

>  <PSA> (P7011830191)
4.559999999999999e+001

$$$$

  -ISIS-  11102212342D

 27 30  0  0  0  0  0  0  0  0999 V2000
    0.3292   -0.2875    0.0000 N   0  0  3  0  0  0  0  0  0  0  0  0
    0.8042    0.3750    0.0000 C   0  0  0  0  0  0  0  0  0  0  0  0
    0.3292    1.0458    0.0000 C   0  0  0  0  0  0  0  0  0  0  0  0
   -0.4583   -0.0292    0.0000 C   0  0  0  0  0  0  0  0  0  0  0  0
   -0.4583    0.7958    0.0000 C   0  0  0  0  0  0  0  0  0  0  0  0
   -1.1708   -0.4417    0.0000 N   0  0  0  0  0  0  0  0  0  0  0  0
   -1.1708    1.2083    0.0000 N   0  0  0  0  0  0  0  0  0  0  0  0
    0.5792   -1.0750    0.0000 C   0  0  0  0  0  0  0  0  0  0  0  0
    0.6542    1.8000    0.0000 C   0  0  0  0  0  0  0  0  0  0  0  0
    1.3792   -1.2417    0.0000 C   0  0  0  0  0  0  0  0  0  0  0  0
   -1.8833   -0.0292    0.0000 C   0  0  0  0  0  0  0  0  0  0  0  0
   -1.8833    0.7958    0.0000 C   0  0  0  0  0  0  0  0  0  0  0  0
    1.6375   -2.0250    0.0000 C   0  0  0  0  0  0  0  0  0  0  0  0
    1.6292    0.4625    0.0000 N   0  0  0  0  0  0  0  0  0  0  0  0
    0.0167   -1.6792    0.0000 C   0  0  0  0  0  0  0  0  0  0  0  0
    1.0792   -2.6417    0.0000 C   0  0  0  0  0  0  0  0  0  0  0  0
    0.1792    2.4708    0.0000 O   0  0  0  0  0  0  0  0  0  0  0  0
    0.2792   -2.4667    0.0000 C   0  0  0  0  0  0  0  0  0  0  0  0
    2.4417   -2.1917    0.0000 Cl  0  0  0  0  0  0  0  0  0  0  0  0
    1.4792    1.8958    0.0000 O   0  0  0  0  0  0  0  0  0  0  0  0
   -2.5958   -0.4417    0.0000 C   0  0  0  0  0  0  0  0  0  0  0  0
   -2.5958    1.2083    0.0000 C   0  0  0  0  0  0  0  0  0  0  0  0
    1.3375   -3.4292    0.0000 C   0  0  0  0  0  0  0  0  0  0  0  0
    1.8917    2.6083    0.0000 C   0  0  0  0  0  0  0  0  0  0  0  0
    2.7167    2.6125    0.0000 C   0  0  0  0  0  0  0  0  0  0  0  0
   -3.3208   -0.0292    0.0000 C   0  0  0  0  0  0  0  0  0  0  0  0
   -3.3208    0.7875    0.0000 C   0  0  0  0  0  0  0  0  0  0  0  0
  2  1  1  0  0  0  0
  3  2  2  0  0  0  0
  4  1  1  0  0  0  0
  5  4  1  0  0  0  0
  6  4  2  0  0  0  0
  7  5  2  0  0  0  0
  8  1  1  0  0  0  0
  9  3  1  0  0  0  0
 10  8  1  0  0  0  0
 11  6  1  0  0  0  0
 12 11  1  0  0  0  0
 13 10  2  0  0  0  0
 14  2  1  0  0  0  0
 15  8  2  0  0  0  0
 16 18  2  0  0  0  0
 17  9  2  0  0  0  0
 18 15  1  0  0  0  0
 19 13  1  0  0  0  0
 20  9  1  0  0  0  0
 21 11  2  0  0  0  0
 22 12  2  0  0  0  0
 23 16  1  0  0  0  0
 24 20  1  0  0  0  0
 25 24  1  0  0  0  0
 26 21  1  0  0  0  0
 27 26  2  0  0  0  0
  3  5  1  0  0  0  0
 16 13  1  0  0  0  0
 12  7  1  0  0  0  0
 27 22  1  0  0  0  0
M  END
>  <Code> (P7011520030)
P7011520030

>  <Number of H-Donors> (P7011520030)
1

>  <Number of H-Acceptors> (P7011520030)
5

>  <Number of Rotatable bonds> (P7011520030)
4

>  <CLogP> (P7011520030)
4.700000000000000e+000

>  <Number of Rings> (P7011520030)
4

>  <PSA> (P7011520030)
8.300000000000000e+001

$$$$

  -ISIS-  11102212342D

 22 25  0  0  0  0  0  0  0  0999 V2000
    7.2917   -7.2500    0.0000 C   0  0  0  0  0  0  0  0  0  0  0  0
    6.8792   -6.5375    0.0000 C   0  0  0  0  0  0  0  0  0  0  0  0
    6.7375   -7.8667    0.0000 S   0  0  0  0  0  0  0  0  0  0  0  0
    6.0750   -6.7125    0.0000 C   0  0  0  0  0  0  0  0  0  0  0  0
    5.9917   -7.5292    0.0000 C   0  0  0  0  0  0  0  0  0  0  0  0
    7.2917   -5.8167    0.0000 C   0  0  0  0  0  0  0  0  0  0  0  0
    8.1250   -7.2500    0.0000 N   0  0  0  0  0  0  0  0  0  0  0  0
    4.8042   -4.3917    0.0000 C   0  0  0  0  0  0  0  0  0  0  0  0
    8.1250   -5.8167    0.0000 N   0  0  0  0  0  0  0  0  0  0  0  0
    5.6292   -4.3917    0.0000 C   0  0  0  0  0  0  0  0  0  0  0  0
    6.8750   -5.1000    0.0000 S   0  0  0  0  0  0  0  0  0  0  0  0
    8.5375   -6.5375    0.0000 C   0  0  0  0  0  0  0  0  0  0  0  0
    4.2417   -3.7750    0.0000 O   0  0  0  0  0  0  0  0  0  0  0  0
    6.0417   -5.1042    0.0000 C   0  0  0  0  0  0  0  0  0  0  0  0
    4.3917   -5.1042    0.0000 C   0  0  0  0  0  0  0  0  0  0  0  0
    3.5042   -4.1042    0.0000 C   0  0  0  0  0  0  0  0  0  0  0  0
    6.0417   -3.6750    0.0000 O   0  0  0  0  0  0  0  0  0  0  0  0
    3.5792   -4.9292    0.0000 C   0  0  0  0  0  0  0  0  0  0  0  0
    5.4000   -6.2292    0.0000 C   0  0  0  0  0  0  0  0  0  0  0  0
    5.2417   -7.8792    0.0000 C   0  0  0  0  0  0  0  0  0  0  0  0
    4.6500   -6.5792    0.0000 C   0  0  0  0  0  0  0  0  0  0  0  0
    4.5750   -7.4000    0.0000 C   0  0  0  0  0  0  0  0  0  0  0  0
  2  1  2  0  0  0  0
  3  1  1  0  0  0  0
  4  2  1  0  0  0  0
  5  3  1  0  0  0  0
  6  2  1  0  0  0  0
  7  1  1  0  0  0  0
  8 10  1  0  0  0  0
  9 12  1  0  0  0  0
 10 14  1  0  0  0  0
 11  6  1  0  0  0  0
 12  7  2  0  0  0  0
 13  8  1  0  0  0  0
 14 11  1  0  0  0  0
 15  8  2  0  0  0  0
 16 13  1  0  0  0  0
 17 10  2  0  0  0  0
 18 15  1  0  0  0  0
 19  4  1  0  0  0  0
 20  5  1  0  0  0  0
 21 19  1  0  0  0  0
 22 20  1  0  0  0  0
  4  5  2  0  0  0  0
  6  9  2  0  0  0  0
 21 22  1  0  0  0  0
 18 16  2  0  0  0  0
M  END
>  <Code> (P7011460527)
P7011460527

>  <Number of H-Donors> (P7011460527)
0

>  <Number of H-Acceptors> (P7011460527)
4

>  <Number of Rotatable bonds> (P7011460527)
4

>  <CLogP> (P7011460527)
4.200000000000000e+000

>  <Number of Rings> (P7011460527)
4

>  <PSA> (P7011460527)
1.095000000000000e+002

$$$$

  -ISIS-  11102212342D

 24 27  0  0  0  0  0  0  0  0999 V2000
   -0.9458   -1.5042    0.0000 C   0  0  0  0  0  0  0  0  0  0  0  0
   -0.9458   -2.1875    0.0000 C   0  0  0  0  0  0  0  0  0  0  0  0
   -0.3625   -1.1667    0.0000 C   0  0  0  0  0  0  0  0  0  0  0  0
   -1.5833   -2.3875    0.0000 S   0  0  0  0  0  0  0  0  0  0  0  0
   -1.5833   -1.2875    0.0000 C   0  0  0  0  0  0  0  0  0  0  0  0
   -1.9708   -1.8500    0.0000 C   0  0  0  0  0  0  0  0  0  0  0  0
   -0.3625   -0.4875    0.0000 N   0  0  3  0  0  0  0  0  0  0  0  0
   -0.3625   -2.5292    0.0000 N   0  0  0  0  0  0  0  0  0  0  0  0
    0.2375   -1.5042    0.0000 N   0  0  0  0  0  0  0  0  0  0  0  0
   -0.3458    0.8958    0.0000 N   0  0  3  0  0  0  0  0  0  0  0  0
    0.2375   -2.1875    0.0000 C   0  0  0  0  0  0  0  0  0  0  0  0
   -0.9458   -0.1292    0.0000 C   0  0  0  0  0  0  0  0  0  0  0  0
    0.2375   -0.1292    0.0000 C   0  0  0  0  0  0  0  0  0  0  0  0
   -0.3458    1.5708    0.0000 C   0  0  0  0  0  0  0  0  0  0  0  0
   -0.9208    0.5500    0.0000 C   0  0  0  0  0  0  0  0  0  0  0  0
    0.2375    0.5500    0.0000 C   0  0  0  0  0  0  0  0  0  0  0  0
   -1.8000   -0.6292    0.0000 C   0  0  0  0  0  0  0  0  0  0  0  0
   -2.6458   -1.8500    0.0000 C   0  0  0  0  0  0  0  0  0  0  0  0
   -0.9208    1.9125    0.0000 C   0  0  0  0  0  0  0  0  0  0  0  0
   -0.9208    2.5958    0.0000 C   0  0  0  0  0  0  0  0  0  0  0  0
   -1.5208    1.5708    0.0000 C   0  0  0  0  0  0  0  0  0  0  0  0
   -2.1000    1.9125    0.0000 C   0  0  0  0  0  0  0  0  0  0  0  0
   -1.5000    2.9333    0.0000 C   0  0  0  0  0  0  0  0  0  0  0  0
   -2.0833    2.5958    0.0000 C   0  0  0  0  0  0  0  0  0  0  0  0
  2  1  2  0  0  0  0
  3  1  1  0  0  0  0
  4  2  1  0  0  0  0
  5  1  1  0  0  0  0
  6  5  2  0  0  0  0
  7  3  1  0  0  0  0
  8  2  1  0  0  0  0
  9  3  2  0  0  0  0
 10 16  1  0  0  0  0
 11  9  1  0  0  0  0
 12  7  1  0  0  0  0
 13  7  1  0  0  0  0
 14 10  1  0  0  0  0
 15 12  1  0  0  0  0
 16 13  1  0  0  0  0
 17  5  1  0  0  0  0
 18  6  1  0  0  0  0
 19 14  1  0  0  0  0
 20 19  2  0  0  0  0
 21 19  1  0  0  0  0
 22 21  2  0  0  0  0
 23 20  1  0  0  0  0
 24 22  1  0  0  0  0
  4  6  1  0  0  0  0
 11  8  2  0  0  0  0
 15 10  1  0  0  0  0
 23 24  2  0  0  0  0
M  END
>  <Code> (P7011460525)
P7011460525

>  <Number of H-Donors> (P7011460525)
0

>  <Number of H-Acceptors> (P7011460525)
4

>  <Number of Rotatable bonds> (P7011460525)
3

>  <CLogP> (P7011460525)
3.400000000000000e+000

>  <Number of Rings> (P7011460525)
4

>  <PSA> (P7011460525)
6.050000000000000e+001

$$$$

  -ISIS-  11102212342D

 18 19  0  0  0  0  0  0  0  0999 V2000
    0.1500    0.3625    0.0000 N   0  0  0  0  0  0  0  0  0  0  0  0
   -0.2333    1.1625    0.0000 C   0  0  0  0  0  0  0  0  0  0  0  0
   -0.5125   -0.2375    0.0000 N   0  0  3  0  0  0  0  0  0  0  0  0
   -1.0708    1.0625    0.0000 C   0  0  0  0  0  0  0  0  0  0  0  0
   -1.2708    0.2000    0.0000 C   0  0  0  0  0  0  0  0  0  0  0  0
    0.2042    1.9458    0.0000 C   0  0  0  0  0  0  0  0  0  0  0  0
   -0.5125   -1.1167    0.0000 C   0  0  0  0  0  0  0  0  0  0  0  0
    1.0875    1.9625    0.0000 O   0  0  0  0  0  0  0  0  0  0  0  0
   -1.6333    1.7458    0.0000 O   0  0  0  0  0  0  0  0  0  0  0  0
   -1.2708   -1.5542    0.0000 C   0  0  0  0  0  0  0  0  0  0  0  0
    0.2667   -1.5542    0.0000 C   0  0  0  0  0  0  0  0  0  0  0  0
   -0.2500    2.7083    0.0000 O   0  0  0  0  0  0  0  0  0  0  0  0
   -0.5125   -2.8792    0.0000 C   0  0  0  0  0  0  0  0  0  0  0  0
   -1.2708   -2.4375    0.0000 C   0  0  0  0  0  0  0  0  0  0  0  0
    0.2667   -2.4375    0.0000 C   0  0  0  0  0  0  0  0  0  0  0  0
   -0.5125   -3.7542    0.0000 Br  0  0  0  0  0  0  0  0  0  0  0  0
    0.1667    3.4625    0.0000 C   0  0  0  0  0  0  0  0  0  0  0  0
   -0.3125    4.2000    0.0000 C   0  0  0  0  0  0  0  0  0  0  0  0
  2  1  2  0  0  0  0
  3  1  1  0  0  0  0
  4  2  1  0  0  0  0
  5  3  1  0  0  0  0
  6  2  1  0  0  0  0
  7  3  1  0  0  0  0
  8  6  2  0  0  0  0
  9  4  1  0  0  0  0
 10  7  2  0  0  0  0
 11  7  1  0  0  0  0
 12  6  1  0  0  0  0
 13 15  1  0  0  0  0
 14 10  1  0  0  0  0
 15 11  2  0  0  0  0
 16 13  1  0  0  0  0
 17 12  1  0  0  0  0
 18 17  1  0  0  0  0
  5  4  2  0  0  0  0
 13 14  2  0  0  0  0
M  END
>  <Code> (P7011460427)
P7011460427

>  <Number of H-Donors> (P7011460427)
1

>  <Number of H-Acceptors> (P7011460427)
4

>  <Number of Rotatable bonds> (P7011460427)
4

>  <CLogP> (P7011460427)
3.200000000000000e+000

>  <Number of Rings> (P7011460427)
2

>  <PSA> (P7011460427)
6.440000000000001e+001

$$$$

  -ISIS-  11102212342D

 18 19  0  0  0  0  0  0  0  0999 V2000
    0.1500    0.3625    0.0000 N   0  0  0  0  0  0  0  0  0  0  0  0
   -0.2333    1.1625    0.0000 C   0  0  0  0  0  0  0  0  0  0  0  0
   -0.5125   -0.2375    0.0000 N   0  0  3  0  0  0  0  0  0  0  0  0
   -1.0708    1.0625    0.0000 C   0  0  0  0  0  0  0  0  0  0  0  0
   -1.2708    0.2000    0.0000 C   0  0  0  0  0  0  0  0  0  0  0  0
    0.2042    1.9458    0.0000 C   0  0  0  0  0  0  0  0  0  0  0  0
   -0.5125   -1.1167    0.0000 C   0  0  0  0  0  0  0  0  0  0  0  0
    1.0875    1.9625    0.0000 O   0  0  0  0  0  0  0  0  0  0  0  0
   -1.6333    1.7458    0.0000 O   0  0  0  0  0  0  0  0  0  0  0  0
   -1.2708   -1.5542    0.0000 C   0  0  0  0  0  0  0  0  0  0  0  0
    0.2667   -1.5542    0.0000 C   0  0  0  0  0  0  0  0  0  0  0  0
   -0.2500    2.7083    0.0000 O   0  0  0  0  0  0  0  0  0  0  0  0
   -0.5125   -2.8792    0.0000 C   0  0  0  0  0  0  0  0  0  0  0  0
   -1.2708   -2.4375    0.0000 C   0  0  0  0  0  0  0  0  0  0  0  0
    0.2667   -2.4375    0.0000 C   0  0  0  0  0  0  0  0  0  0  0  0
   -0.5125   -3.7542    0.0000 Cl  0  0  0  0  0  0  0  0  0  0  0  0
    0.1667    3.4625    0.0000 C   0  0  0  0  0  0  0  0  0  0  0  0
   -0.3125    4.2000    0.0000 C   0  0  0  0  0  0  0  0  0  0  0  0
  2  1  2  0  0  0  0
  3  1  1  0  0  0  0
  4  2  1  0  0  0  0
  5  3  1  0  0  0  0
  6  2  1  0  0  0  0
  7  3  1  0  0  0  0
  8  6  2  0  0  0  0
  9  4  1  0  0  0  0
 10  7  2  0  0  0  0
 11  7  1  0  0  0  0
 12  6  1  0  0  0  0
 13 15  1  0  0  0  0
 14 10  1  0  0  0  0
 15 11  2  0  0  0  0
 16 13  1  0  0  0  0
 17 12  1  0  0  0  0
 18 17  1  0  0  0  0
  5  4  2  0  0  0  0
 13 14  2  0  0  0  0
M  END
>  <Code> (P7011460421)
P7011460421

>  <Number of H-Donors> (P7011460421)
1

>  <Number of H-Acceptors> (P7011460421)
4

>  <Number of Rotatable bonds> (P7011460421)
4

>  <CLogP> (P7011460421)
3.100000000000000e+000

>  <Number of Rings> (P7011460421)
2

>  <PSA> (P7011460421)
6.440000000000001e+001

$$$$

  -ISIS-  11102212342D

 16 17  0  0  0  0  0  0  0  0999 V2000
    7.3375   -8.0875    0.0000 N   0  0  0  0  0  0  0  0  0  0  0  0
    7.3375   -6.4375    0.0000 N   0  0  0  0  0  0  0  0  0  0  0  0
    8.0542   -7.6750    0.0000 C   0  0  0  0  0  0  0  0  0  0  0  0
    8.0542   -6.8500    0.0000 C   0  0  0  0  0  0  0  0  0  0  0  0
    6.6250   -7.6750    0.0000 C   0  0  0  0  0  0  0  0  0  0  0  0
    6.6250   -6.8500    0.0000 C   0  0  0  0  0  0  0  0  0  0  0  0
   10.2042   -6.4250    0.0000 C   0  0  0  0  0  0  0  0  0  0  0  0
    8.7750   -6.4292    0.0000 C   0  0  0  0  0  0  0  0  0  0  0  0
   10.2000   -5.5917    0.0000 O   0  0  0  0  0  0  0  0  0  0  0  0
    9.4917   -6.8417    0.0000 C   0  0  0  0  0  0  0  0  0  0  0  0
    8.7750   -8.0875    0.0000 O   0  0  0  0  0  0  0  0  0  0  0  0
   10.9292   -6.8292    0.0000 O   0  0  0  0  0  0  0  0  0  0  0  0
    5.9125   -8.0875    0.0000 C   0  0  0  0  0  0  0  0  0  0  0  0
    5.9125   -6.4375    0.0000 C   0  0  0  0  0  0  0  0  0  0  0  0
    5.1917   -6.8500    0.0000 C   0  0  0  0  0  0  0  0  0  0  0  0
    5.1917   -7.6750    0.0000 C   0  0  0  0  0  0  0  0  0  0  0  0
  2  6  1  0  0  0  0
  3  1  2  0  0  0  0
  4  3  1  0  0  0  0
  5  1  1  0  0  0  0
  6  5  1  0  0  0  0
  7 10  1  0  0  0  0
  8  4  1  0  0  0  0
  9  7  2  0  0  0  0
 10  8  1  0  0  0  0
 11  3  1  0  0  0  0
 12  7  1  0  0  0  0
 13  5  2  0  0  0  0
 14  6  2  0  0  0  0
 15 16  2  0  0  0  0
 16 13  1  0  0  0  0
  4  2  2  0  0  0  0
 14 15  1  0  0  0  0
M  END
>  <Code> (P7010590268)
P7010590268

>  <Number of H-Donors> (P7010590268)
2

>  <Number of H-Acceptors> (P7010590268)
5

>  <Number of Rotatable bonds> (P7010590268)
3

>  <CLogP> (P7010590268)
1.700000000000000e+000

>  <Number of Rings> (P7010590268)
2

>  <PSA> (P7010590268)
8.330000000000000e+001

$$$$

  -ISIS-  11102212342D

 25 27  0  0  0  0  0  0  0  0999 V2000
    3.3292   -1.6417    0.0000 C   0  0  0  0  0  0  0  0  0  0  0  0
    2.0000   -1.6417    0.0000 N   0  0  3  0  0  0  0  0  0  0  0  0
    3.0750   -2.4292    0.0000 C   0  0  0  0  0  0  0  0  0  0  0  0
    2.6625   -1.1542    0.0000 C   0  0  0  0  0  0  0  0  0  0  0  0
    2.2500   -2.4292    0.0000 C   0  0  0  0  0  0  0  0  0  0  0  0
    1.2167   -1.3875    0.0000 C   0  0  0  0  0  0  0  0  0  0  0  0
   -0.7958   -2.2292    0.0000 C   0  0  3  0  0  0  0  0  0  0  0  0
    4.1167   -1.3875    0.0000 N   0  0  0  0  0  0  0  0  0  0  0  0
   -0.1833   -1.6792    0.0000 C   0  0  0  0  0  0  0  0  0  0  0  0
    0.6042   -1.9417    0.0000 C   0  0  0  0  0  0  0  0  0  0  0  0
    2.6625   -0.3292    0.0000 O   0  0  0  0  0  0  0  0  0  0  0  0
    1.7667   -3.0917    0.0000 O   0  0  0  0  0  0  0  0  0  0  0  0
    3.5625   -3.0917    0.0000 Cl  0  0  0  0  0  0  0  0  0  0  0  0
   -1.1708   -1.4917    0.0000 F   0  0  0  0  0  0  0  0  0  0  0  0
   -1.5833   -1.9750    0.0000 F   0  0  0  0  0  0  0  0  0  0  0  0
   -0.6333   -3.0375    0.0000 F   0  0  0  0  0  0  0  0  0  0  0  0
    4.7292   -1.9417    0.0000 C   0  0  3  0  0  0  0  0  0  0  0  0
    1.0417   -0.5792    0.0000 C   0  0  0  0  0  0  0  0  0  0  0  0
   -0.3500   -0.8667    0.0000 C   0  0  0  0  0  0  0  0  0  0  0  0
    0.2625   -0.3250    0.0000 C   0  0  0  0  0  0  0  0  0  0  0  0
    4.5500   -2.7500    0.0000 C   0  0  0  0  0  0  0  0  0  0  0  0
    5.5042   -1.6875    0.0000 C   0  0  0  0  0  0  0  0  0  0  0  0
    6.1167   -2.2417    0.0000 C   0  0  0  0  0  0  0  0  0  0  0  0
    5.1542   -3.3042    0.0000 C   0  0  0  0  0  0  0  0  0  0  0  0
    5.9417   -3.0542    0.0000 C   0  0  0  0  0  0  0  0  0  0  0  0
  2  4  1  0  0  0  0
  3  1  2  0  0  0  0
  4  1  1  0  0  0  0
  5  3  1  0  0  0  0
  6  2  1  0  0  0  0
  7  9  1  0  0  0  0
  8  1  1  0  0  0  0
  9 10  2  0  0  0  0
 10  6  1  0  0  0  0
 11  4  2  0  0  0  0
 12  5  2  0  0  0  0
 13  3  1  0  0  0  0
 14  7  1  0  0  0  0
 15  7  1  0  0  0  0
 16  7  1  0  0  0  0
 17  8  1  0  0  0  0
 18  6  2  0  0  0  0
 19 20  2  0  0  0  0
 20 18  1  0  0  0  0
 21 17  1  0  0  0  0
 22 17  1  0  0  0  0
 23 22  1  0  0  0  0
 24 21  1  0  0  0  0
 25 23  1  0  0  0  0
  2  5  1  0  0  0  0
 24 25  1  0  0  0  0
  9 19  1  0  0  0  0
M  END
>  <Code> (P7010590193)
P7010590193

>  <Number of H-Donors> (P7010590193)
1

>  <Number of H-Acceptors> (P7010590193)
3

>  <Number of Rotatable bonds> (P7010590193)
4

>  <CLogP> (P7010590193)
3.800000000000000e+000

>  <Number of Rings> (P7010590193)
3

>  <PSA> (P7010590193)
4.940000000000001e+001

$$$$

  -ISIS-  11102212342D

 25 27  0  0  0  0  0  0  0  0999 V2000
    0.1667   -1.3417    0.0000 C   0  0  0  0  0  0  0  0  0  0  0  0
   -0.5500   -0.9292    0.0000 C   0  0  0  0  0  0  0  0  0  0  0  0
   -1.2583   -1.3500    0.0000 C   0  0  0  0  0  0  0  0  0  0  0  0
    0.8792   -0.9250    0.0000 C   0  0  0  0  0  0  0  0  0  0  0  0
   -0.5458   -2.5875    0.0000 N   0  0  0  0  0  0  0  0  0  0  0  0
    0.1667   -2.1667    0.0000 C   0  0  0  0  0  0  0  0  0  0  0  0
   -1.2583   -2.1750    0.0000 C   0  0  0  0  0  0  0  0  0  0  0  0
   -1.9750   -0.9375    0.0000 C   0  0  0  0  0  0  0  0  0  0  0  0
    0.8750   -0.0917    0.0000 O   0  0  0  0  0  0  0  0  0  0  0  0
   -0.5583   -0.1042    0.0000 N   0  0  0  0  0  0  0  0  0  0  0  0
   -1.9750   -2.5917    0.0000 C   0  0  0  0  0  0  0  0  0  0  0  0
   -2.6875   -1.3500    0.0000 C   0  0  0  0  0  0  0  0  0  0  0  0
    1.5917   -1.3292    0.0000 O   0  0  0  0  0  0  0  0  0  0  0  0
   -2.6875   -2.1792    0.0000 C   0  0  0  0  0  0  0  0  0  0  0  0
   -1.2708    0.3083    0.0000 C   0  0  0  0  0  0  0  0  0  0  0  0
   -1.9750    1.5458    0.0000 C   0  0  0  0  0  0  0  0  0  0  0  0
   -1.2625    1.1333    0.0000 C   0  0  0  0  0  0  0  0  0  0  0  0
    2.3042   -0.9167    0.0000 C   0  0  0  0  0  0  0  0  0  0  0  0
   -3.4083   -0.9375    0.0000 C   0  0  0  0  0  0  0  0  0  0  0  0
   -2.6875    1.1333    0.0000 C   0  0  0  0  0  0  0  0  0  0  0  0
   -1.9708    2.3708    0.0000 C   0  0  0  0  0  0  0  0  0  0  0  0
    3.0250   -1.3250    0.0000 C   0  0  0  0  0  0  0  0  0  0  0  0
   -3.4000    1.5375    0.0000 C   0  0  0  0  0  0  0  0  0  0  0  0
   -2.6833    2.7833    0.0000 C   0  0  0  0  0  0  0  0  0  0  0  0
   -3.4000    2.3708    0.0000 C   0  0  0  0  0  0  0  0  0  0  0  0
  2  1  2  0  0  0  0
  3  2  1  0  0  0  0
  4  1  1  0  0  0  0
  5  6  2  0  0  0  0
  6  1  1  0  0  0  0
  7  5  1  0  0  0  0
  8  3  2  0  0  0  0
  9  4  2  0  0  0  0
 10  2  1  0  0  0  0
 11  7  2  0  0  0  0
 12  8  1  0  0  0  0
 13  4  1  0  0  0  0
 14 11  1  0  0  0  0
 15 10  1  0  0  0  0
 16 17  1  0  0  0  0
 17 15  1  0  0  0  0
 18 13  1  0  0  0  0
 19 12  1  0  0  0  0
 20 16  1  0  0  0  0
 21 16  2  0  0  0  0
 22 18  1  0  0  0  0
 23 20  2  0  0  0  0
 24 21  1  0  0  0  0
 25 24  2  0  0  0  0
  3  7  1  0  0  0  0
 12 14  2  0  0  0  0
 25 23  1  0  0  0  0
M  END
>  <Code> (P7010260099)
P7010260099

>  <Number of H-Donors> (P7010260099)
1

>  <Number of H-Acceptors> (P7010260099)
4

>  <Number of Rotatable bonds> (P7010260099)
7

>  <CLogP> (P7010260099)
4.400000000000000e+000

>  <Number of Rings> (P7010260099)
3

>  <PSA> (P7010260099)
5.119999999999999e+001

$$$$

  -ISIS-  11102212342D

 26 28  0  0  0  0  0  0  0  0999 V2000
    7.1250   -1.4292    0.0000 C   0  0  0  0  0  0  0  0  0  0  0  0
    7.2167   -2.2500    0.0000 C   0  0  0  0  0  0  0  0  0  0  0  0
    7.8750   -1.0875    0.0000 S   0  0  0  0  0  0  0  0  0  0  0  0
    8.0250   -2.4167    0.0000 C   0  0  0  0  0  0  0  0  0  0  0  0
    8.4292   -1.7000    0.0000 C   0  0  0  0  0  0  0  0  0  0  0  0
    6.4042   -1.0167    0.0000 N   0  0  0  0  0  0  0  0  0  0  0  0
    6.6042   -2.8042    0.0000 C   0  0  0  0  0  0  0  0  0  0  0  0
    5.6875   -0.6167    0.0000 C   0  0  0  0  0  0  0  0  0  0  0  0
    4.2667   -0.6167    0.0000 O   0  0  0  0  0  0  0  0  0  0  0  0
    6.7875   -3.6125    0.0000 O   0  0  0  0  0  0  0  0  0  0  0  0
    3.5542   -1.0292    0.0000 C   0  0  0  0  0  0  0  0  0  0  0  0
    5.6792    0.2083    0.0000 O   0  0  0  0  0  0  0  0  0  0  0  0
    3.5542   -1.8542    0.0000 C   0  0  0  0  0  0  0  0  0  0  0  0
    4.9792   -1.0292    0.0000 C   0  0  0  0  0  0  0  0  0  0  0  0
    5.8167   -2.5542    0.0000 O   0  0  0  0  0  0  0  0  0  0  0  0
    4.2667   -2.2667    0.0000 Br  0  0  0  0  0  0  0  0  0  0  0  0
    8.4417   -3.1250    0.0000 C   0  0  0  0  0  0  0  0  0  0  0  0
    9.2542   -1.6917    0.0000 C   0  0  0  0  0  0  0  0  0  0  0  0
    2.8375   -0.6167    0.0000 C   0  0  0  0  0  0  0  0  0  0  0  0
    2.8375   -2.2667    0.0000 C   0  0  0  0  0  0  0  0  0  0  0  0
    5.6417   -1.7500    0.0000 C   0  0  0  0  0  0  0  0  0  0  0  0
    9.2667   -3.1167    0.0000 C   0  0  0  0  0  0  0  0  0  0  0  0
    9.6750   -2.4042    0.0000 C   0  0  0  0  0  0  0  0  0  0  0  0
    4.8542   -1.5042    0.0000 C   0  0  0  0  0  0  0  0  0  0  0  0
    2.1292   -1.0292    0.0000 C   0  0  0  0  0  0  0  0  0  0  0  0
    2.1292   -1.8542    0.0000 C   0  0  0  0  0  0  0  0  0  0  0  0
  2  1  2  0  0  0  0
  3  1  1  0  0  0  0
  4  2  1  0  0  0  0
  5  3  1  0  0  0  0
  6  1  1  0  0  0  0
  7  2  1  0  0  0  0
  8  6  1  0  0  0  0
  9 14  1  0  0  0  0
 10  7  2  0  0  0  0
 11  9  1  0  0  0  0
 12  8  2  0  0  0  0
 13 11  2  0  0  0  0
 14  8  1  0  0  0  0
 15  7  1  0  0  0  0
 16 13  1  0  0  0  0
 17  4  1  0  0  0  0
 18  5  1  0  0  0  0
 19 11  1  0  0  0  0
 20 13  1  0  0  0  0
 21 15  1  0  0  0  0
 22 17  1  0  0  0  0
 23 18  1  0  0  0  0
 24 21  1  0  0  0  0
 25 19  2  0  0  0  0
 26 25  1  0  0  0  0
  5  4  2  0  0  0  0
 22 23  1  0  0  0  0
 20 26  2  0  0  0  0
M  END
>  <Code> (P7010170647)
P7010170647

>  <Number of H-Donors> (P7010170647)
1

>  <Number of H-Acceptors> (P7010170647)
4

>  <Number of Rotatable bonds> (P7010170647)
7

>  <CLogP> (P7010170647)
4.600000000000000e+000

>  <Number of Rings> (P7010170647)
3

>  <PSA> (P7010170647)
9.290000000000001e+001

$$$$

  -ISIS-  11102212342D

 27 30  0  0  0  0  0  0  0  0999 V2000
   -0.1958   -1.3417    0.0000 C   0  0  0  0  0  0  0  0  0  0  0  0
   -0.9083   -0.9375    0.0000 C   0  0  0  0  0  0  0  0  0  0  0  0
   -1.6208   -1.3542    0.0000 C   0  0  0  0  0  0  0  0  0  0  0  0
   -1.6208   -2.1792    0.0000 C   0  0  0  0  0  0  0  0  0  0  0  0
   -0.9000   -2.5917    0.0000 N   0  0  0  0  0  0  0  0  0  0  0  0
    0.5167   -0.9292    0.0000 C   0  0  0  0  0  0  0  0  0  0  0  0
   -0.1875   -2.1750    0.0000 C   0  0  0  0  0  0  0  0  0  0  0  0
   -0.9125   -0.1125    0.0000 N   0  0  0  0  0  0  0  0  0  0  0  0
   -2.3333   -2.5917    0.0000 C   0  0  0  0  0  0  0  0  0  0  0  0
   -2.3333   -0.9417    0.0000 C   0  0  0  0  0  0  0  0  0  0  0  0
    0.5167   -0.1042    0.0000 O   0  0  0  0  0  0  0  0  0  0  0  0
   -0.8708    2.3625    0.0000 N   0  0  0  0  0  0  0  0  0  0  0  0
   -3.0458   -2.1792    0.0000 C   0  0  0  0  0  0  0  0  0  0  0  0
   -3.0458   -1.3542    0.0000 C   0  0  0  0  0  0  0  0  0  0  0  0
   -1.6208    0.3125    0.0000 C   0  0  0  0  0  0  0  0  0  0  0  0
   -1.6083    1.1375    0.0000 C   0  0  0  0  0  0  0  0  0  0  0  0
    1.2375   -1.3375    0.0000 O   0  0  0  0  0  0  0  0  0  0  0  0
   -0.8833    1.5375    0.0000 C   0  0  0  0  0  0  0  0  0  0  0  0
   -2.3375   -3.4125    0.0000 C   0  0  0  0  0  0  0  0  0  0  0  0
   -1.5750    2.7875    0.0000 C   0  0  0  0  0  0  0  0  0  0  0  0
   -2.3125    1.5583    0.0000 C   0  0  0  0  0  0  0  0  0  0  0  0
   -3.7583   -2.5875    0.0000 C   0  0  0  0  0  0  0  0  0  0  0  0
    1.9500   -0.9167    0.0000 C   0  0  0  0  0  0  0  0  0  0  0  0
   -2.3000    2.3833    0.0000 C   0  0  0  0  0  0  0  0  0  0  0  0
   -3.0458   -3.8167    0.0000 C   0  0  0  0  0  0  0  0  0  0  0  0
    2.6667   -1.3292    0.0000 C   0  0  0  0  0  0  0  0  0  0  0  0
   -3.7583   -3.4042    0.0000 C   0  0  0  0  0  0  0  0  0  0  0  0
  2  1  2  0  0  0  0
  3  2  1  0  0  0  0
  4  5  1  0  0  0  0
  5  7  2  0  0  0  0
  6  1  1  0  0  0  0
  7  1  1  0  0  0  0
  8  2  1  0  0  0  0
  9  4  2  0  0  0  0
 10  3  2  0  0  0  0
 11  6  2  0  0  0  0
 12 18  1  0  0  0  0
 13  9  1  0  0  0  0
 14 10  1  0  0  0  0
 15  8  1  0  0  0  0
 16 15  1  0  0  0  0
 17  6  1  0  0  0  0
 18 16  2  0  0  0  0
 19  9  1  0  0  0  0
 20 24  1  0  0  0  0
 21 16  1  0  0  0  0
 22 13  1  0  0  0  0
 23 17  1  0  0  0  0
 24 21  2  0  0  0  0
 25 19  2  0  0  0  0
 26 23  1  0  0  0  0
 27 25  1  0  0  0  0
  4  3  1  0  0  0  0
 13 14  2  0  0  0  0
 22 27  2  0  0  0  0
 12 20  2  0  0  0  0
M  END
>  <Code> (P7010160092)
P7010160092

>  <Number of H-Donors> (P7010160092)
1

>  <Number of H-Acceptors> (P7010160092)
5

>  <Number of Rotatable bonds> (P7010160092)
6

>  <CLogP> (P7010160092)
3.400000000000000e+000

>  <Number of Rings> (P7010160092)
4

>  <PSA> (P7010160092)
6.409999999999999e+001

$$$$

  -ISIS-  11102212342D

 30 34  0  0  0  0  0  0  0  0999 V2000
   -1.8458    1.2333    0.0000 C   0  0  0  0  0  0  0  0  0  0  0  0
   -1.8333    0.4125    0.0000 C   0  0  0  0  0  0  0  0  0  0  0  0
   -0.4125    0.4125    0.0000 C   0  0  0  0  0  0  0  0  0  0  0  0
   -0.4125    1.2458    0.0000 N   0  0  3  0  0  0  0  0  0  0  0  0
   -1.1375    0.0083    0.0000 N   0  0  0  0  0  0  0  0  0  0  0  0
   -2.5458    0.0083    0.0000 N   0  0  3  0  0  0  0  0  0  0  0  0
   -3.2500    1.2333    0.0000 N   0  0  3  0  0  0  0  0  0  0  0  0
   -3.2500    0.4125    0.0000 C   0  0  0  0  0  0  0  0  0  0  0  0
   -2.5458    1.6500    0.0000 C   0  0  0  0  0  0  0  0  0  0  0  0
    0.3000   -0.0000    0.0000 N   0  0  3  0  0  0  0  0  0  0  0  0
    1.0042    0.4250    0.0000 C   0  0  0  0  0  0  0  0  0  0  0  0
    1.0042    1.2458    0.0000 C   0  0  0  0  0  0  0  0  0  0  0  0
    1.7417   -0.0000    0.0000 C   0  0  0  0  0  0  0  0  0  0  0  0
    2.4750    0.4250    0.0000 C   0  0  0  0  0  0  0  0  0  0  0  0
   -3.9708   -0.0000    0.0000 O   0  0  0  0  0  0  0  0  0  0  0  0
   -2.5458    2.4708    0.0000 O   0  0  0  0  0  0  0  0  0  0  0  0
    3.2167   -0.0000    0.0000 C   0  0  0  0  0  0  0  0  0  0  0  0
    0.3000   -0.8125    0.0000 C   0  0  0  0  0  0  0  0  0  0  0  0
    3.2167   -0.8542    0.0000 C   0  0  0  0  0  0  0  0  0  0  0  0
    1.7417   -0.8542    0.0000 C   0  0  0  0  0  0  0  0  0  0  0  0
   -2.5458   -0.8125    0.0000 C   0  0  0  0  0  0  0  0  0  0  0  0
   -3.9708    1.6458    0.0000 C   0  0  0  0  0  0  0  0  0  0  0  0
    2.4750   -1.2792    0.0000 C   0  0  0  0  0  0  0  0  0  0  0  0
    3.9500    0.4458    0.0000 Cl  0  0  0  0  0  0  0  0  0  0  0  0
    3.9542   -1.2792    0.0000 O   0  0  0  0  0  0  0  0  0  0  0  0
   -0.4125   -1.2167    0.0000 C   0  0  0  0  0  0  0  0  0  0  0  0
    1.0167   -1.2292    0.0000 C   0  0  0  0  0  0  0  0  0  0  0  0
    1.0042   -2.0542    0.0000 C   0  0  0  0  0  0  0  0  0  0  0  0
   -0.4125   -2.0375    0.0000 C   0  0  0  0  0  0  0  0  0  0  0  0
    0.3000   -2.4542    0.0000 C   0  0  0  0  0  0  0  0  0  0  0  0
  2  1  2  0  0  0  0
  3  4  1  0  0  0  0
  4  1  1  0  0  0  0
  5  2  1  0  0  0  0
  6  2  1  0  0  0  0
  7  9  1  0  0  0  0
  8  7  1  0  0  0  0
  9  1  1  0  0  0  0
 10  3  1  0  0  0  0
 11 12  2  0  0  0  0
 12  4  1  0  0  0  0
 13 11  1  0  0  0  0
 14 13  1  0  0  0  0
 15  8  2  0  0  0  0
 16  9  2  0  0  0  0
 17 14  2  0  0  0  0
 18 10  1  0  0  0  0
 19 23  2  0  0  0  0
 20 13  2  0  0  0  0
 21  6  1  0  0  0  0
 22  7  1  0  0  0  0
 23 20  1  0  0  0  0
 24 17  1  0  0  0  0
 25 19  1  0  0  0  0
 26 18  2  0  0  0  0
 27 18  1  0  0  0  0
 28 27  2  0  0  0  0
 29 26  1  0  0  0  0
 30 28  1  0  0  0  0
  3  5  2  0  0  0  0
  6  8  1  0  0  0  0
 11 10  1  0  0  0  0
 19 17  1  0  0  0  0
 29 30  2  0  0  0  0
M  END
>  <Code> (P7010086)
P7010086

>  <Number of H-Donors> (P7010086)
1

>  <Number of H-Acceptors> (P7010086)
4

>  <Number of Rotatable bonds> (P7010086)
2

>  <CLogP> (P7010086)
3.900000000000000e+000

>  <Number of Rings> (P7010086)
5

>  <PSA> (P7010086)
8.310000000000002e+001

$$$$

  -ISIS-  11102212342D

 18 20  0  0  0  0  0  0  0  0999 V2000
    6.2250    0.8250    0.0000 C   0  0  0  0  0  0  0  0  0  0  0  0
    5.6542    0.4708    0.0000 C   0  0  0  0  0  0  0  0  0  0  0  0
    6.7917    0.4833    0.0000 N   0  0  0  0  0  0  0  0  0  0  0  0
    6.2250    1.5333    0.0000 N   0  0  0  0  0  0  0  0  0  0  0  0
    5.6542   -0.2375    0.0000 C   0  0  0  0  0  0  0  0  0  0  0  0
    6.2292   -0.5875    0.0000 N   0  0  0  0  0  0  0  0  0  0  0  0
    6.8042   -0.2167    0.0000 C   0  0  0  0  0  0  0  0  0  0  0  0
    5.0750    0.8250    0.0000 C   0  0  0  0  0  0  0  0  0  0  0  0
    5.0875   -0.5875    0.0000 C   0  0  0  0  0  0  0  0  0  0  0  0
    4.5125    0.4708    0.0000 C   0  0  0  0  0  0  0  0  0  0  0  0
    6.2167    2.2375    0.0000 C   0  0  3  0  0  0  0  0  0  0  0  0
    4.5167   -0.2375    0.0000 C   0  0  0  0  0  0  0  0  0  0  0  0
    3.7875    0.8708    0.0000 Br  0  0  0  0  0  0  0  0  0  0  0  0
    5.6417    2.5875    0.0000 C   0  0  0  0  0  0  0  0  0  0  0  0
    6.7875    2.5958    0.0000 C   0  0  0  0  0  0  0  0  0  0  0  0
    6.7875    3.2958    0.0000 C   0  0  0  0  0  0  0  0  0  0  0  0
    5.6375    3.2958    0.0000 C   0  0  0  0  0  0  0  0  0  0  0  0
    6.2125    3.6458    0.0000 C   0  0  0  0  0  0  0  0  0  0  0  0
  2  1  1  0  0  0  0
  3  1  2  0  0  0  0
  4  1  1  0  0  0  0
  5  2  1  0  0  0  0
  6  7  2  0  0  0  0
  7  3  1  0  0  0  0
  8  2  2  0  0  0  0
  9  5  2  0  0  0  0
 10  8  1  0  0  0  0
 11  4  1  0  0  0  0
 12 10  2  0  0  0  0
 13 10  1  0  0  0  0
 14 11  1  0  0  0  0
 15 11  1  0  0  0  0
 16 15  1  0  0  0  0
 17 14  1  0  0  0  0
 18 16  1  0  0  0  0
  6  5  1  0  0  0  0
  9 12  1  0  0  0  0
 18 17  1  0  0  0  0
M  END
>  <Code> (P7010010136)
P7010010136

>  <Number of H-Donors> (P7010010136)
1

>  <Number of H-Acceptors> (P7010010136)
3

>  <Number of Rotatable bonds> (P7010010136)
2

>  <CLogP> (P7010010136)
3.900000000000000e+000

>  <Number of Rings> (P7010010136)
3

>  <PSA> (P7010010136)
3.780000000000000e+001

$$$$

  -ISIS-  11102212342D

 19 20  0  0  0  0  0  0  0  0999 V2000
   -1.8958    1.2500    0.0000 N   0  0  0  0  0  0  0  0  0  0  0  0
   -2.2333    2.0000    0.0000 C   0  0  0  0  0  0  0  0  0  0  0  0
    2.7042    2.0208    0.0000 C   0  0  3  0  0  0  0  0  0  0  0  0
   -3.0500    1.9208    0.0000 S   0  0  0  0  0  0  0  0  0  0  0  0
   -2.5000    0.7000    0.0000 C   0  0  0  0  0  0  0  0  0  0  0  0
   -3.2208    1.1208    0.0000 C   0  0  0  0  0  0  0  0  0  0  0  0
    1.8875    2.0208    0.0000 C   0  0  0  0  0  0  0  0  0  0  0  0
   -0.9958    2.7333    0.0000 N   0  0  0  0  0  0  0  0  0  0  0  0
   -1.8208    2.7208    0.0000 N   0  0  0  0  0  0  0  0  0  0  0  0
    3.1167    1.3000    0.0000 F   0  0  0  0  0  0  0  0  0  0  0  0
    3.1167    2.7333    0.0000 F   0  0  0  0  0  0  0  0  0  0  0  0
    2.5000    1.2208    0.0000 F   0  0  0  0  0  0  0  0  0  0  0  0
    1.4667    1.3000    0.0000 C   0  0  0  0  0  0  0  0  0  0  0  0
    1.4667    2.7333    0.0000 C   0  0  0  0  0  0  0  0  0  0  0  0
   -0.5708    2.0208    0.0000 C   0  0  0  0  0  0  0  0  0  0  0  0
    0.2500    2.0208    0.0000 C   0  0  0  0  0  0  0  0  0  0  0  0
    0.6500    1.3000    0.0000 C   0  0  0  0  0  0  0  0  0  0  0  0
    0.6500    2.7333    0.0000 C   0  0  0  0  0  0  0  0  0  0  0  0
   -2.4125   -0.1042    0.0000 C   0  0  0  0  0  0  0  0  0  0  0  0
  2  1  2  0  0  0  0
  3  7  1  0  0  0  0
  4  2  1  0  0  0  0
  5  1  1  0  0  0  0
  6  5  2  0  0  0  0
  7 14  1  0  0  0  0
  8  9  1  0  0  0  0
  9  2  1  0  0  0  0
 10  3  1  0  0  0  0
 11  3  1  0  0  0  0
 12  3  1  0  0  0  0
 13 17  1  0  0  0  0
 14 18  2  0  0  0  0
 15  8  2  0  0  0  0
 16 15  1  0  0  0  0
 17 16  2  0  0  0  0
 18 16  1  0  0  0  0
 19  5  1  0  0  0  0
  6  4  1  0  0  0  0
  7 13  2  0  0  0  0
M  END
>  <Code> (P7010000352)
P7010000352

>  <Number of H-Donors> (P7010000352)
1

>  <Number of H-Acceptors> (P7010000352)
3

>  <Number of Rotatable bonds> (P7010000352)
4

>  <CLogP> (P7010000352)
3.000000000000000e+000

>  <Number of Rings> (P7010000352)
2

>  <PSA> (P7010000352)
6.550000000000000e+001

$$$$

  -ISIS-  11102212342D

 30 33  0  0  0  0  0  0  0  0999 V2000
   -1.1125    0.4083    0.0000 C   0  0  0  0  0  0  0  0  0  0  0  0
   -1.1125    1.2250    0.0000 C   0  0  0  0  0  0  0  0  0  0  0  0
   -1.8083   -0.0000    0.0000 N   0  0  0  0  0  0  0  0  0  0  0  0
   -1.8000    1.6458    0.0000 C   0  0  0  0  0  0  0  0  0  0  0  0
   -2.4875    1.2250    0.0000 N   0  0  3  0  0  0  0  0  0  0  0  0
   -0.4375   -0.0000    0.0000 N   0  0  3  0  0  0  0  0  0  0  0  0
    0.2500    0.4083    0.0000 C   0  0  0  0  0  0  0  0  0  0  0  0
   -2.4875    0.4083    0.0000 C   0  0  0  0  0  0  0  0  0  0  0  0
    0.2500    1.2083    0.0000 C   0  0  0  0  0  0  0  0  0  0  0  0
    0.9375   -0.0125    0.0000 C   0  0  0  0  0  0  0  0  0  0  0  0
    1.6542    0.4083    0.0000 N   0  0  0  0  0  0  0  0  0  0  0  0
   -3.1625    1.6458    0.0000 C   0  0  0  0  0  0  0  0  0  0  0  0
   -1.8000    2.4625    0.0000 O   0  0  0  0  0  0  0  0  0  0  0  0
   -3.1625    0.0083    0.0000 C   0  0  0  0  0  0  0  0  0  0  0  0
    2.3917    1.6458    0.0000 C   0  0  0  0  0  0  0  0  0  0  0  0
    2.3917    0.8125    0.0000 C   0  0  0  0  0  0  0  0  0  0  0  0
    0.9292   -0.8250    0.0000 O   0  0  0  0  0  0  0  0  0  0  0  0
    3.1250    2.0583    0.0000 C   0  0  0  0  0  0  0  0  0  0  0  0
   -3.8458    1.2250    0.0000 C   0  0  0  0  0  0  0  0  0  0  0  0
   -3.8458    0.4083    0.0000 C   0  0  0  0  0  0  0  0  0  0  0  0
   -0.4458   -0.8250    0.0000 C   0  0  0  0  0  0  0  0  0  0  0  0
    3.8292    1.6333    0.0000 Cl  0  0  0  0  0  0  0  0  0  0  0  0
   -1.1625   -1.2292    0.0000 C   0  0  0  0  0  0  0  0  0  0  0  0
   -1.8833   -2.4667    0.0000 O   0  0  0  0  0  0  0  0  0  0  0  0
    1.6792    2.0708    0.0000 C   0  0  0  0  0  0  0  0  0  0  0  0
   -1.1625   -2.0542    0.0000 C   0  0  0  0  0  0  0  0  0  0  0  0
    3.1292    2.8833    0.0000 C   0  0  0  0  0  0  0  0  0  0  0  0
   -1.8833   -3.2917    0.0000 C   0  0  0  0  0  0  0  0  0  0  0  0
    1.6875    2.9083    0.0000 C   0  0  0  0  0  0  0  0  0  0  0  0
    2.4167    3.3083    0.0000 C   0  0  0  0  0  0  0  0  0  0  0  0
  2  1  2  0  0  0  0
  3  1  1  0  0  0  0
  4  2  1  0  0  0  0
  5  8  1  0  0  0  0
  6  1  1  0  0  0  0
  7  6  1  0  0  0  0
  8  3  2  0  0  0  0
  9  2  1  0  0  0  0
 10  7  1  0  0  0  0
 11 10  1  0  0  0  0
 12  5  1  0  0  0  0
 13  4  2  0  0  0  0
 14  8  1  0  0  0  0
 15 16  1  0  0  0  0
 16 11  1  0  0  0  0
 17 10  2  0  0  0  0
 18 15  1  0  0  0  0
 19 20  1  0  0  0  0
 20 14  2  0  0  0  0
 21  6  1  0  0  0  0
 22 18  1  0  0  0  0
 23 21  1  0  0  0  0
 24 26  1  0  0  0  0
 25 15  2  0  0  0  0
 26 23  1  0  0  0  0
 27 18  2  0  0  0  0
 28 24  1  0  0  0  0
 29 25  1  0  0  0  0
 30 29  2  0  0  0  0
  7  9  2  0  0  0  0
  4  5  1  0  0  0  0
 19 12  2  0  0  0  0
 27 30  1  0  0  0  0
M  END
>  <Code> (P7009841)
P7009841

>  <Number of H-Donors> (P7009841)
1

>  <Number of H-Acceptors> (P7009841)
4

>  <Number of Rotatable bonds> (P7009841)
7

>  <CLogP> (P7009841)
2.400000000000000e+000

>  <Number of Rings> (P7009841)
4

>  <PSA> (P7009841)
7.590000000000001e+001

$$$$

  -ISIS-  11102212342D

 27 31  0  0  0  0  0  0  0  0999 V2000
    3.5750    0.1708    0.0000 N   0  0  3  0  0  0  0  0  0  0  0  0
    2.1500   -0.6542    0.0000 C   0  0  0  0  0  0  0  0  0  0  0  0
    2.1542    0.1708    0.0000 C   0  0  0  0  0  0  0  0  0  0  0  0
    2.8667    0.5875    0.0000 C   0  0  0  0  0  0  0  0  0  0  0  0
    4.2875    0.5833    0.0000 C   0  0  0  0  0  0  0  0  0  0  0  0
    1.4375   -1.0667    0.0000 N   0  0  3  0  0  0  0  0  0  0  0  0
    2.8667   -1.0667    0.0000 N   0  0  0  0  0  0  0  0  0  0  0  0
    2.8667    1.4083    0.0000 N   0  0  0  0  0  0  0  0  0  0  0  0
    4.2917    1.3958    0.0000 N   0  0  0  0  0  0  0  0  0  0  0  0
    0.7250   -0.6417    0.0000 N   0  0  0  0  0  0  0  0  0  0  0  0
    3.5667   -0.6542    0.0000 C   0  0  0  0  0  0  0  0  0  0  0  0
    5.0000    0.1708    0.0000 C   0  0  0  0  0  0  0  0  0  0  0  0
    1.4375   -1.9042    0.0000 C   0  0  0  0  0  0  0  0  0  0  0  0
    0.7292    0.1708    0.0000 C   0  0  0  0  0  0  0  0  0  0  0  0
    2.1625   -2.3292    0.0000 C   0  0  0  0  0  0  0  0  0  0  0  0
    5.7125    0.5833    0.0000 C   0  0  0  0  0  0  0  0  0  0  0  0
    0.6917   -2.3292    0.0000 C   0  0  0  0  0  0  0  0  0  0  0  0
    0.6792   -3.1792    0.0000 C   0  0  0  0  0  0  0  0  0  0  0  0
    2.1542   -3.1917    0.0000 C   0  0  0  0  0  0  0  0  0  0  0  0
    4.9917   -0.6542    0.0000 C   0  0  0  0  0  0  0  0  0  0  0  0
    1.4167   -3.6125    0.0000 C   0  0  0  0  0  0  0  0  0  0  0  0
    2.9167   -3.6417    0.0000 Cl  0  0  0  0  0  0  0  0  0  0  0  0
    5.7167    1.4083    0.0000 O   0  0  0  0  0  0  0  0  0  0  0  0
   -0.0750   -1.8875    0.0000 C   0  0  0  0  0  0  0  0  0  0  0  0
    6.4167    0.1625    0.0000 C   0  0  0  0  0  0  0  0  0  0  0  0
    5.7042   -1.0667    0.0000 C   0  0  0  0  0  0  0  0  0  0  0  0
    6.4167   -0.6542    0.0000 C   0  0  0  0  0  0  0  0  0  0  0  0
  2  7  1  0  0  0  0
  3  4  1  0  0  0  0
  4  1  1  0  0  0  0
  5  1  1  0  0  0  0
  6  2  1  0  0  0  0
  7 11  2  0  0  0  0
  8  4  2  0  0  0  0
  9  5  2  0  0  0  0
 10 14  2  0  0  0  0
 11  1  1  0  0  0  0
 12  5  1  0  0  0  0
 13  6  1  0  0  0  0
 14  3  1  0  0  0  0
 15 13  1  0  0  0  0
 16 12  1  0  0  0  0
 17 13  2  0  0  0  0
 18 17  1  0  0  0  0
 19 15  2  0  0  0  0
 20 12  2  0  0  0  0
 21 18  2  0  0  0  0
 22 19  1  0  0  0  0
 23 16  1  0  0  0  0
 24 17  1  0  0  0  0
 25 16  2  0  0  0  0
 26 20  1  0  0  0  0
 27 26  2  0  0  0  0
  8  9  1  0  0  0  0
  2  3  2  0  0  0  0
 10  6  1  0  0  0  0
 25 27  1  0  0  0  0
 19 21  1  0  0  0  0
M  END
>  <Code> (P7009635)
P7009635

>  <Number of H-Donors> (P7009635)
1

>  <Number of H-Acceptors> (P7009635)
5

>  <Number of Rotatable bonds> (P7009635)
2

>  <CLogP> (P7009635)
4.200000000000000e+000

>  <Number of Rings> (P7009635)
5

>  <PSA> (P7009635)
8.110000000000001e+001

$$$$

  -ISIS-  11102212342D

 26 30  0  0  0  0  0  0  0  0999 V2000
    3.5792    0.1708    0.0000 N   0  0  3  0  0  0  0  0  0  0  0  0
    2.1542   -0.6542    0.0000 C   0  0  0  0  0  0  0  0  0  0  0  0
    2.1542    0.1708    0.0000 C   0  0  0  0  0  0  0  0  0  0  0  0
    2.8667    0.5875    0.0000 C   0  0  0  0  0  0  0  0  0  0  0  0
    1.4375   -1.0667    0.0000 N   0  0  3  0  0  0  0  0  0  0  0  0
    2.8667   -1.0667    0.0000 N   0  0  0  0  0  0  0  0  0  0  0  0
    4.2875    0.5833    0.0000 C   0  0  0  0  0  0  0  0  0  0  0  0
    2.8667    1.4083    0.0000 N   0  0  0  0  0  0  0  0  0  0  0  0
    4.2917    1.3958    0.0000 N   0  0  0  0  0  0  0  0  0  0  0  0
    0.7250   -0.6417    0.0000 N   0  0  0  0  0  0  0  0  0  0  0  0
    3.5750   -0.6542    0.0000 C   0  0  0  0  0  0  0  0  0  0  0  0
    0.7292    0.1708    0.0000 C   0  0  0  0  0  0  0  0  0  0  0  0
    1.4375   -1.9125    0.0000 C   0  0  0  0  0  0  0  0  0  0  0  0
    5.0042    0.1708    0.0000 C   0  0  0  0  0  0  0  0  0  0  0  0
    0.6917   -2.3375    0.0000 C   0  0  0  0  0  0  0  0  0  0  0  0
    5.7167    0.5833    0.0000 C   0  0  0  0  0  0  0  0  0  0  0  0
    5.0042   -0.6500    0.0000 C   0  0  0  0  0  0  0  0  0  0  0  0
   -0.0750   -1.8875    0.0000 Cl  0  0  0  0  0  0  0  0  0  0  0  0
    5.7167   -1.0667    0.0000 C   0  0  0  0  0  0  0  0  0  0  0  0
    6.4292    0.1708    0.0000 C   0  0  0  0  0  0  0  0  0  0  0  0
    6.4292   -0.6542    0.0000 C   0  0  0  0  0  0  0  0  0  0  0  0
    2.1667   -2.3375    0.0000 C   0  0  0  0  0  0  0  0  0  0  0  0
    0.6792   -3.1792    0.0000 C   0  0  0  0  0  0  0  0  0  0  0  0
    7.1417   -1.0667    0.0000 C   0  0  0  0  0  0  0  0  0  0  0  0
    2.1542   -3.1917    0.0000 C   0  0  0  0  0  0  0  0  0  0  0  0
    1.4167   -3.6125    0.0000 C   0  0  0  0  0  0  0  0  0  0  0  0
  2  6  1  0  0  0  0
  3  4  1  0  0  0  0
  4  1  1  0  0  0  0
  5  2  1  0  0  0  0
  6 11  2  0  0  0  0
  7  1  1  0  0  0  0
  8  4  2  0  0  0  0
  9  7  2  0  0  0  0
 10 12  2  0  0  0  0
 11  1  1  0  0  0  0
 12  3  1  0  0  0  0
 13  5  1  0  0  0  0
 14  7  1  0  0  0  0
 15 13  2  0  0  0  0
 16 14  2  0  0  0  0
 17 14  1  0  0  0  0
 18 15  1  0  0  0  0
 19 17  2  0  0  0  0
 20 16  1  0  0  0  0
 21 19  1  0  0  0  0
 22 13  1  0  0  0  0
 23 15  1  0  0  0  0
 24 21  1  0  0  0  0
 25 22  2  0  0  0  0
 26 25  1  0  0  0  0
  8  9  1  0  0  0  0
  2  3  2  0  0  0  0
 10  5  1  0  0  0  0
 21 20  2  0  0  0  0
 23 26  2  0  0  0  0
M  END
>  <Code> (P7009630)
P7009630

>  <Number of H-Donors> (P7009630)
0

>  <Number of H-Acceptors> (P7009630)
4

>  <Number of Rotatable bonds> (P7009630)
2

>  <CLogP> (P7009630)
4.400000000000000e+000

>  <Number of Rings> (P7009630)
5

>  <PSA> (P7009630)
6.090000000000000e+001

$$$$

  -ISIS-  11102212342D

 26 30  0  0  0  0  0  0  0  0999 V2000
    4.7250    0.1958    0.0000 N   0  0  3  0  0  0  0  0  0  0  0  0
    3.2917   -0.6292    0.0000 C   0  0  0  0  0  0  0  0  0  0  0  0
    3.2917    0.1958    0.0000 C   0  0  0  0  0  0  0  0  0  0  0  0
    4.0167    0.6083    0.0000 C   0  0  0  0  0  0  0  0  0  0  0  0
    5.4292    0.6000    0.0000 C   0  0  0  0  0  0  0  0  0  0  0  0
    2.5750   -1.0417    0.0000 N   0  0  3  0  0  0  0  0  0  0  0  0
    4.0125   -1.0417    0.0000 N   0  0  0  0  0  0  0  0  0  0  0  0
    4.0167    1.4333    0.0000 N   0  0  0  0  0  0  0  0  0  0  0  0
    5.4375    1.4250    0.0000 N   0  0  0  0  0  0  0  0  0  0  0  0
    1.8667   -0.6250    0.0000 N   0  0  0  0  0  0  0  0  0  0  0  0
    4.7167   -0.6292    0.0000 C   0  0  0  0  0  0  0  0  0  0  0  0
    6.1417    0.1875    0.0000 C   0  0  0  0  0  0  0  0  0  0  0  0
    1.8667    0.1958    0.0000 C   0  0  0  0  0  0  0  0  0  0  0  0
    2.5750   -1.8917    0.0000 C   0  0  0  0  0  0  0  0  0  0  0  0
    6.8542    0.6000    0.0000 C   0  0  0  0  0  0  0  0  0  0  0  0
    1.8292   -2.3167    0.0000 C   0  0  0  0  0  0  0  0  0  0  0  0
    6.1417   -0.6292    0.0000 C   0  0  0  0  0  0  0  0  0  0  0  0
    6.8625    1.4250    0.0000 O   0  0  0  0  0  0  0  0  0  0  0  0
    3.3042   -2.3167    0.0000 C   0  0  0  0  0  0  0  0  0  0  0  0
    7.5625    0.1833    0.0000 C   0  0  0  0  0  0  0  0  0  0  0  0
    1.0792   -1.8667    0.0000 C   0  0  0  0  0  0  0  0  0  0  0  0
    1.8167   -3.1667    0.0000 C   0  0  0  0  0  0  0  0  0  0  0  0
    6.8417   -1.0417    0.0000 C   0  0  0  0  0  0  0  0  0  0  0  0
    3.2917   -3.1792    0.0000 C   0  0  0  0  0  0  0  0  0  0  0  0
    2.5542   -3.6000    0.0000 C   0  0  0  0  0  0  0  0  0  0  0  0
    7.5542   -0.6417    0.0000 C   0  0  0  0  0  0  0  0  0  0  0  0
  2  7  1  0  0  0  0
  3  4  1  0  0  0  0
  4  1  1  0  0  0  0
  5  1  1  0  0  0  0
  6  2  1  0  0  0  0
  7 11  2  0  0  0  0
  8  4  2  0  0  0  0
  9  5  2  0  0  0  0
 10 13  2  0  0  0  0
 11  1  1  0  0  0  0
 12  5  1  0  0  0  0
 13  3  1  0  0  0  0
 14  6  1  0  0  0  0
 15 12  1  0  0  0  0
 16 14  2  0  0  0  0
 17 12  2  0  0  0  0
 18 15  1  0  0  0  0
 19 14  1  0  0  0  0
 20 15  2  0  0  0  0
 21 16  1  0  0  0  0
 22 16  1  0  0  0  0
 23 17  1  0  0  0  0
 24 19  2  0  0  0  0
 25 24  1  0  0  0  0
 26 23  2  0  0  0  0
  8  9  1  0  0  0  0
  2  3  2  0  0  0  0
 10  6  1  0  0  0  0
 20 26  1  0  0  0  0
 22 25  2  0  0  0  0
M  END
>  <Code> (P7009593)
P7009593

>  <Number of H-Donors> (P7009593)
1

>  <Number of H-Acceptors> (P7009593)
5

>  <Number of Rotatable bonds> (P7009593)
2

>  <CLogP> (P7009593)
3.500000000000000e+000

>  <Number of Rings> (P7009593)
5

>  <PSA> (P7009593)
8.110000000000001e+001

$$$$

  -ISIS-  11102212342D

 28 32  0  0  0  0  0  0  0  0999 V2000
    4.7250    0.1958    0.0000 N   0  0  3  0  0  0  0  0  0  0  0  0
    3.2917   -0.6292    0.0000 C   0  0  0  0  0  0  0  0  0  0  0  0
    3.2917    0.1958    0.0000 C   0  0  0  0  0  0  0  0  0  0  0  0
    4.0167    0.6083    0.0000 C   0  0  0  0  0  0  0  0  0  0  0  0
    5.4292    0.6000    0.0000 C   0  0  0  0  0  0  0  0  0  0  0  0
    2.5750   -1.0417    0.0000 N   0  0  3  0  0  0  0  0  0  0  0  0
    4.0125   -1.0417    0.0000 N   0  0  0  0  0  0  0  0  0  0  0  0
    4.0167    1.4333    0.0000 N   0  0  0  0  0  0  0  0  0  0  0  0
    5.4375    1.4250    0.0000 N   0  0  0  0  0  0  0  0  0  0  0  0
    1.8667   -0.6250    0.0000 N   0  0  0  0  0  0  0  0  0  0  0  0
    4.7167   -0.6292    0.0000 C   0  0  0  0  0  0  0  0  0  0  0  0
    6.1500    0.1958    0.0000 C   0  0  0  0  0  0  0  0  0  0  0  0
    1.8667    0.1958    0.0000 C   0  0  0  0  0  0  0  0  0  0  0  0
    2.5750   -1.8917    0.0000 C   0  0  0  0  0  0  0  0  0  0  0  0
    6.8625    0.6000    0.0000 C   0  0  0  0  0  0  0  0  0  0  0  0
    6.1417   -0.6292    0.0000 C   0  0  0  0  0  0  0  0  0  0  0  0
    7.5750    0.1958    0.0000 C   0  0  0  0  0  0  0  0  0  0  0  0
    1.8292   -2.3167    0.0000 C   0  0  0  0  0  0  0  0  0  0  0  0
    7.5667   -0.6292    0.0000 C   0  0  0  0  0  0  0  0  0  0  0  0
    6.8625    1.4250    0.0000 O   0  0  0  0  0  0  0  0  0  0  0  0
    6.8500   -1.0417    0.0000 C   0  0  0  0  0  0  0  0  0  0  0  0
    3.3042   -2.3167    0.0000 C   0  0  0  0  0  0  0  0  0  0  0  0
    8.2792   -1.0500    0.0000 O   0  0  0  0  0  0  0  0  0  0  0  0
    1.0792   -1.8667    0.0000 C   0  0  0  0  0  0  0  0  0  0  0  0
    1.8167   -3.1667    0.0000 C   0  0  0  0  0  0  0  0  0  0  0  0
    8.9917   -0.6417    0.0000 C   0  0  0  0  0  0  0  0  0  0  0  0
    3.2917   -3.1792    0.0000 C   0  0  0  0  0  0  0  0  0  0  0  0
    2.5542   -3.6000    0.0000 C   0  0  0  0  0  0  0  0  0  0  0  0
  2  7  1  0  0  0  0
  3  4  1  0  0  0  0
  4  1  1  0  0  0  0
  5  1  1  0  0  0  0
  6  2  1  0  0  0  0
  7 11  2  0  0  0  0
  8  4  2  0  0  0  0
  9  5  2  0  0  0  0
 10 13  2  0  0  0  0
 11  1  1  0  0  0  0
 12  5  1  0  0  0  0
 13  3  1  0  0  0  0
 14  6  1  0  0  0  0
 15 12  2  0  0  0  0
 16 12  1  0  0  0  0
 17 15  1  0  0  0  0
 18 14  2  0  0  0  0
 19 21  1  0  0  0  0
 20 15  1  0  0  0  0
 21 16  2  0  0  0  0
 22 14  1  0  0  0  0
 23 19  1  0  0  0  0
 24 18  1  0  0  0  0
 25 18  1  0  0  0  0
 26 23  1  0  0  0  0
 27 22  2  0  0  0  0
 28 27  1  0  0  0  0
  8  9  1  0  0  0  0
  2  3  2  0  0  0  0
 10  6  1  0  0  0  0
 19 17  2  0  0  0  0
 25 28  2  0  0  0  0
M  END
>  <Code> (P7009589)
P7009589

>  <Number of H-Donors> (P7009589)
1

>  <Number of H-Acceptors> (P7009589)
6

>  <Number of Rotatable bonds> (P7009589)
3

>  <CLogP> (P7009589)
3.500000000000000e+000

>  <Number of Rings> (P7009589)
5

>  <PSA> (P7009589)
9.040000000000001e+001

$$$$

  -ISIS-  11102212342D

 29 33  0  0  0  0  0  0  0  0999 V2000
    3.1667    0.1875    0.0000 N   0  0  3  0  0  0  0  0  0  0  0  0
    1.7500   -0.6292    0.0000 C   0  0  0  0  0  0  0  0  0  0  0  0
    1.7542    0.1875    0.0000 C   0  0  0  0  0  0  0  0  0  0  0  0
    2.4667    0.6000    0.0000 C   0  0  0  0  0  0  0  0  0  0  0  0
    1.0375   -1.0417    0.0000 N   0  0  3  0  0  0  0  0  0  0  0  0
    2.4667   -1.0417    0.0000 N   0  0  0  0  0  0  0  0  0  0  0  0
    3.8792    0.5958    0.0000 C   0  0  0  0  0  0  0  0  0  0  0  0
    2.4667    1.4208    0.0000 N   0  0  0  0  0  0  0  0  0  0  0  0
    3.8792    1.4083    0.0000 N   0  0  0  0  0  0  0  0  0  0  0  0
    0.3292   -0.6250    0.0000 N   0  0  0  0  0  0  0  0  0  0  0  0
    3.1667   -0.6292    0.0000 C   0  0  0  0  0  0  0  0  0  0  0  0
    6.7125    0.5833    0.0000 N   0  3  0  0  0  0  0  0  0  0  0  0
    0.3375    0.1958    0.0000 C   0  0  0  0  0  0  0  0  0  0  0  0
    1.0375   -1.8875    0.0000 C   0  0  0  0  0  0  0  0  0  0  0  0
    4.5792    0.1833    0.0000 C   0  0  0  0  0  0  0  0  0  0  0  0
    6.0000    0.1833    0.0000 C   0  0  0  0  0  0  0  0  0  0  0  0
    0.2917   -2.3042    0.0000 C   0  0  0  0  0  0  0  0  0  0  0  0
    5.2917    0.5833    0.0000 C   0  0  0  0  0  0  0  0  0  0  0  0
    1.7667   -2.3042    0.0000 C   0  0  0  0  0  0  0  0  0  0  0  0
    7.4125    0.1750    0.0000 O   0  5  0  0  0  0  0  0  0  0  0  0
    6.7125    1.4000    0.0000 O   0  0  0  0  0  0  0  0  0  0  0  0
    0.2875   -3.1500    0.0000 C   0  0  0  0  0  0  0  0  0  0  0  0
    1.7542   -3.1625    0.0000 C   0  0  0  0  0  0  0  0  0  0  0  0
    1.0167   -3.5792    0.0000 C   0  0  0  0  0  0  0  0  0  0  0  0
    4.5792   -0.6292    0.0000 C   0  0  0  0  0  0  0  0  0  0  0  0
    5.9917   -0.6417    0.0000 C   0  0  0  0  0  0  0  0  0  0  0  0
   -0.4583   -1.8667    0.0000 C   0  0  0  0  0  0  0  0  0  0  0  0
    5.2875   -1.0417    0.0000 C   0  0  0  0  0  0  0  0  0  0  0  0
    1.0125   -4.4542    0.0000 C   0  0  0  0  0  0  0  0  0  0  0  0
  2  6  1  0  0  0  0
  3  4  1  0  0  0  0
  4  1  1  0  0  0  0
  5  2  1  0  0  0  0
  6 11  2  0  0  0  0
  7  1  1  0  0  0  0
  8  4  2  0  0  0  0
  9  7  2  0  0  0  0
 10 13  2  0  0  0  0
 11  1  1  0  0  0  0
 12 16  1  0  0  0  0
 13  3  1  0  0  0  0
 14  5  1  0  0  0  0
 15  7  1  0  0  0  0
 16 18  1  0  0  0  0
 17 14  2  0  0  0  0
 18 15  2  0  0  0  0
 19 14  1  0  0  0  0
 20 12  1  0  0  0  0
 21 12  2  0  0  0  0
 22 17  1  0  0  0  0
 23 19  2  0  0  0  0
 24 23  1  0  0  0  0
 25 15  1  0  0  0  0
 26 28  1  0  0  0  0
 27 17  1  0  0  0  0
 28 25  2  0  0  0  0
 29 24  1  0  0  0  0
  8  9  1  0  0  0  0
  2  3  2  0  0  0  0
 10  5  1  0  0  0  0
 26 16  2  0  0  0  0
 22 24  2  0  0  0  0
M  CHG  2  12   1  20  -1
M  END
>  <Code> (P7009585)
P7009585

>  <Number of H-Donors> (P7009585)
0

>  <Number of H-Acceptors> (P7009585)
6

>  <Number of Rotatable bonds> (P7009585)
3

>  <CLogP> (P7009585)
4.100000000000000e+000

>  <Number of Rings> (P7009585)
5

>  <PSA> (P7009585)
1.067000000000000e+002

$$$$

  -ISIS-  11102212342D

 27 31  0  0  0  0  0  0  0  0999 V2000
    3.1667    0.1875    0.0000 N   0  0  3  0  0  0  0  0  0  0  0  0
    1.7500   -0.6292    0.0000 C   0  0  0  0  0  0  0  0  0  0  0  0
    1.7542    0.1875    0.0000 C   0  0  0  0  0  0  0  0  0  0  0  0
    2.4667    0.6000    0.0000 C   0  0  0  0  0  0  0  0  0  0  0  0
    3.8792    0.5875    0.0000 C   0  0  0  0  0  0  0  0  0  0  0  0
    1.0375   -1.0417    0.0000 N   0  0  3  0  0  0  0  0  0  0  0  0
    2.4667   -1.0417    0.0000 N   0  0  0  0  0  0  0  0  0  0  0  0
    2.4667    1.4208    0.0000 N   0  0  0  0  0  0  0  0  0  0  0  0
    3.8792    1.4083    0.0000 N   0  0  0  0  0  0  0  0  0  0  0  0
    0.3292   -0.6250    0.0000 N   0  0  0  0  0  0  0  0  0  0  0  0
    3.1667   -0.6292    0.0000 C   0  0  0  0  0  0  0  0  0  0  0  0
    4.5792    0.1833    0.0000 C   0  0  0  0  0  0  0  0  0  0  0  0
    0.3375    0.1958    0.0000 C   0  0  0  0  0  0  0  0  0  0  0  0
    1.0375   -1.8875    0.0000 C   0  0  0  0  0  0  0  0  0  0  0  0
    0.2917   -2.3042    0.0000 C   0  0  0  0  0  0  0  0  0  0  0  0
    1.7667   -2.3042    0.0000 C   0  0  0  0  0  0  0  0  0  0  0  0
    5.2917    0.5833    0.0000 C   0  0  0  0  0  0  0  0  0  0  0  0
    0.2875   -3.1500    0.0000 C   0  0  0  0  0  0  0  0  0  0  0  0
    1.7542   -3.1625    0.0000 C   0  0  0  0  0  0  0  0  0  0  0  0
    1.0167   -3.5792    0.0000 C   0  0  0  0  0  0  0  0  0  0  0  0
    5.3000    1.4083    0.0000 Cl  0  0  0  0  0  0  0  0  0  0  0  0
    4.5792   -0.6292    0.0000 C   0  0  0  0  0  0  0  0  0  0  0  0
   -0.4583   -1.8667    0.0000 C   0  0  0  0  0  0  0  0  0  0  0  0
    5.9917    0.1708    0.0000 C   0  0  0  0  0  0  0  0  0  0  0  0
    1.0125   -4.4542    0.0000 C   0  0  0  0  0  0  0  0  0  0  0  0
    5.2917   -1.0417    0.0000 C   0  0  0  0  0  0  0  0  0  0  0  0
    5.9875   -0.6417    0.0000 C   0  0  0  0  0  0  0  0  0  0  0  0
  2  7  1  0  0  0  0
  3  4  1  0  0  0  0
  4  1  1  0  0  0  0
  5  1  1  0  0  0  0
  6  2  1  0  0  0  0
  7 11  2  0  0  0  0
  8  4  2  0  0  0  0
  9  5  2  0  0  0  0
 10 13  2  0  0  0  0
 11  1  1  0  0  0  0
 12  5  1  0  0  0  0
 13  3  1  0  0  0  0
 14  6  1  0  0  0  0
 15 14  2  0  0  0  0
 16 14  1  0  0  0  0
 17 12  2  0  0  0  0
 18 15  1  0  0  0  0
 19 16  2  0  0  0  0
 20 19  1  0  0  0  0
 21 17  1  0  0  0  0
 22 12  1  0  0  0  0
 23 15  1  0  0  0  0
 24 17  1  0  0  0  0
 25 20  1  0  0  0  0
 26 22  2  0  0  0  0
 27 26  1  0  0  0  0
  8  9  1  0  0  0  0
  2  3  2  0  0  0  0
 10  6  1  0  0  0  0
 24 27  2  0  0  0  0
 18 20  2  0  0  0  0
M  END
>  <Code> (P7009583)
P7009583

>  <Number of H-Donors> (P7009583)
0

>  <Number of H-Acceptors> (P7009583)
4

>  <Number of Rotatable bonds> (P7009583)
2

>  <CLogP> (P7009583)
4.900000000000000e+000

>  <Number of Rings> (P7009583)
5

>  <PSA> (P7009583)
6.090000000000000e+001

$$$$

  -ISIS-  11102212342D

 30 35  0  0  0  0  0  0  0  0999 V2000
    3.1917    0.1875    0.0000 N   0  0  3  0  0  0  0  0  0  0  0  0
    1.7667   -0.6375    0.0000 C   0  0  0  0  0  0  0  0  0  0  0  0
    1.7667    0.1875    0.0000 C   0  0  0  0  0  0  0  0  0  0  0  0
    2.4917    0.6083    0.0000 C   0  0  0  0  0  0  0  0  0  0  0  0
    3.9042    0.5958    0.0000 C   0  0  0  0  0  0  0  0  0  0  0  0
    2.4875   -1.0542    0.0000 N   0  0  0  0  0  0  0  0  0  0  0  0
    1.0417   -1.0542    0.0000 N   0  0  3  0  0  0  0  0  0  0  0  0
    2.4917    1.4333    0.0000 N   0  0  0  0  0  0  0  0  0  0  0  0
    3.9125    1.4208    0.0000 N   0  0  0  0  0  0  0  0  0  0  0  0
    4.6167    0.1833    0.0000 C   0  0  0  0  0  0  0  0  0  0  0  0
    0.3292   -0.6292    0.0000 N   0  0  0  0  0  0  0  0  0  0  0  0
    3.1917   -0.6375    0.0000 C   0  0  0  0  0  0  0  0  0  0  0  0
    0.3375    0.1958    0.0000 C   0  0  0  0  0  0  0  0  0  0  0  0
    4.6125   -0.6417    0.0000 C   0  0  0  0  0  0  0  0  0  0  0  0
    5.3292    0.5958    0.0000 C   0  0  0  0  0  0  0  0  0  0  0  0
    1.0417   -1.9042    0.0000 C   0  0  0  0  0  0  0  0  0  0  0  0
    6.0375    0.1750    0.0000 C   0  0  0  0  0  0  0  0  0  0  0  0
    5.3167   -1.0542    0.0000 C   0  0  0  0  0  0  0  0  0  0  0  0
    6.0292   -0.6500    0.0000 C   0  0  0  0  0  0  0  0  0  0  0  0
    0.3000   -2.3250    0.0000 C   0  0  0  0  0  0  0  0  0  0  0  0
    1.7792   -2.3250    0.0000 C   0  0  0  0  0  0  0  0  0  0  0  0
    5.3375    1.4208    0.0000 O   0  0  0  0  0  0  0  0  0  0  0  0
    1.0292   -3.6125    0.0000 C   0  0  0  0  0  0  0  0  0  0  0  0
    1.7667   -3.1875    0.0000 C   0  0  0  0  0  0  0  0  0  0  0  0
    0.2875   -3.1750    0.0000 C   0  0  0  0  0  0  0  0  0  0  0  0
    1.0167   -4.4875    0.0000 F   0  0  0  0  0  0  0  0  0  0  0  0
    5.3042   -1.8667    0.0000 C   0  0  0  0  0  0  0  0  0  0  0  0
    6.7417   -1.0625    0.0000 C   0  0  0  0  0  0  0  0  0  0  0  0
    6.0167   -2.2917    0.0000 C   0  0  0  0  0  0  0  0  0  0  0  0
    6.7292   -1.8792    0.0000 C   0  0  0  0  0  0  0  0  0  0  0  0
  2  6  1  0  0  0  0
  3  4  1  0  0  0  0
  4  1  1  0  0  0  0
  5  1  1  0  0  0  0
  6 12  2  0  0  0  0
  7  2  1  0  0  0  0
  8  4  2  0  0  0  0
  9  5  2  0  0  0  0
 10  5  1  0  0  0  0
 11 13  2  0  0  0  0
 12  1  1  0  0  0  0
 13  3  1  0  0  0  0
 14 10  2  0  0  0  0
 15 10  1  0  0  0  0
 16  7  1  0  0  0  0
 17 15  2  0  0  0  0
 18 14  1  0  0  0  0
 19 17  1  0  0  0  0
 20 16  2  0  0  0  0
 21 16  1  0  0  0  0
 22 15  1  0  0  0  0
 23 24  1  0  0  0  0
 24 21  2  0  0  0  0
 25 20  1  0  0  0  0
 26 23  1  0  0  0  0
 27 18  2  0  0  0  0
 28 19  2  0  0  0  0
 29 27  1  0  0  0  0
 30 28  1  0  0  0  0
  8  9  1  0  0  0  0
  2  3  2  0  0  0  0
 11  7  1  0  0  0  0
 19 18  1  0  0  0  0
 25 23  2  0  0  0  0
 29 30  2  0  0  0  0
M  END
>  <Code> (P7009576)
P7009576

>  <Number of H-Donors> (P7009576)
1

>  <Number of H-Acceptors> (P7009576)
5

>  <Number of Rotatable bonds> (P7009576)
2

>  <CLogP> (P7009576)
4.100000000000000e+000

>  <Number of Rings> (P7009576)
6

>  <PSA> (P7009576)
8.110000000000001e+001

$$$$

  -ISIS-  11102212342D

 29 33  0  0  0  0  0  0  0  0999 V2000
    3.1667    0.1875    0.0000 N   0  0  3  0  0  0  0  0  0  0  0  0
    1.7500   -0.6292    0.0000 C   0  0  0  0  0  0  0  0  0  0  0  0
    1.7542    0.1875    0.0000 C   0  0  0  0  0  0  0  0  0  0  0  0
    2.4667    0.6000    0.0000 C   0  0  0  0  0  0  0  0  0  0  0  0
    2.4667   -1.0417    0.0000 N   0  0  0  0  0  0  0  0  0  0  0  0
    3.8792    0.5958    0.0000 C   0  0  0  0  0  0  0  0  0  0  0  0
    1.0375   -1.0417    0.0000 N   0  0  3  0  0  0  0  0  0  0  0  0
    2.4667    1.4208    0.0000 N   0  0  0  0  0  0  0  0  0  0  0  0
    3.8792    1.4083    0.0000 N   0  0  0  0  0  0  0  0  0  0  0  0
    0.3292   -0.6250    0.0000 N   0  0  0  0  0  0  0  0  0  0  0  0
    3.1667   -0.6292    0.0000 C   0  0  0  0  0  0  0  0  0  0  0  0
    0.3375    0.1958    0.0000 C   0  0  0  0  0  0  0  0  0  0  0  0
    4.5792    0.1833    0.0000 C   0  0  0  0  0  0  0  0  0  0  0  0
    1.0375   -1.8875    0.0000 C   0  0  0  0  0  0  0  0  0  0  0  0
    4.5792   -0.6250    0.0000 C   0  0  0  0  0  0  0  0  0  0  0  0
    5.2792   -1.0292    0.0000 C   0  0  0  0  0  0  0  0  0  0  0  0
    5.9792   -0.6250    0.0000 C   0  0  0  0  0  0  0  0  0  0  0  0
    5.2875    0.5833    0.0000 C   0  0  0  0  0  0  0  0  0  0  0  0
    5.9792    0.1833    0.0000 C   0  0  0  0  0  0  0  0  0  0  0  0
    0.2917   -2.3042    0.0000 C   0  0  0  0  0  0  0  0  0  0  0  0
    1.7667   -2.3042    0.0000 C   0  0  0  0  0  0  0  0  0  0  0  0
    1.0167   -3.5792    0.0000 C   0  0  0  0  0  0  0  0  0  0  0  0
    5.2875   -1.8625    0.0000 O   0  0  0  0  0  0  0  0  0  0  0  0
    1.7542   -3.1625    0.0000 C   0  0  0  0  0  0  0  0  0  0  0  0
    0.2875   -3.1500    0.0000 C   0  0  0  0  0  0  0  0  0  0  0  0
    1.0125   -4.4542    0.0000 Cl  0  0  0  0  0  0  0  0  0  0  0  0
    6.7000   -1.0375    0.0000 O   0  0  0  0  0  0  0  0  0  0  0  0
    6.0042   -2.2750    0.0000 C   0  0  0  0  0  0  0  0  0  0  0  0
    7.4167   -0.6250    0.0000 C   0  0  0  0  0  0  0  0  0  0  0  0
  2  5  1  0  0  0  0
  3  4  1  0  0  0  0
  4  1  1  0  0  0  0
  5 11  2  0  0  0  0
  6  1  1  0  0  0  0
  7  2  1  0  0  0  0
  8  4  2  0  0  0  0
  9  6  2  0  0  0  0
 10 12  2  0  0  0  0
 11  1  1  0  0  0  0
 12  3  1  0  0  0  0
 13  6  1  0  0  0  0
 14  7  1  0  0  0  0
 15 13  1  0  0  0  0
 16 15  2  0  0  0  0
 17 19  2  0  0  0  0
 18 13  2  0  0  0  0
 19 18  1  0  0  0  0
 20 14  2  0  0  0  0
 21 14  1  0  0  0  0
 22 24  1  0  0  0  0
 23 16  1  0  0  0  0
 24 21  2  0  0  0  0
 25 20  1  0  0  0  0
 26 22  1  0  0  0  0
 27 17  1  0  0  0  0
 28 23  1  0  0  0  0
 29 27  1  0  0  0  0
  8  9  1  0  0  0  0
  2  3  2  0  0  0  0
 10  7  1  0  0  0  0
 17 16  1  0  0  0  0
 25 22  2  0  0  0  0
M  END
>  <Code> (P7009566)
P7009566

>  <Number of H-Donors> (P7009566)
0

>  <Number of H-Acceptors> (P7009566)
6

>  <Number of Rotatable bonds> (P7009566)
4

>  <CLogP> (P7009566)
3.900000000000000e+000

>  <Number of Rings> (P7009566)
5

>  <PSA> (P7009566)
7.940000000000001e+001

$$$$

  -ISIS-  11102212342D

 27 31  0  0  0  0  0  0  0  0999 V2000
    3.6292   -0.1542    0.0000 N   0  0  3  0  0  0  0  0  0  0  0  0
    2.2042   -0.9792    0.0000 C   0  0  0  0  0  0  0  0  0  0  0  0
    2.2125   -0.1542    0.0000 C   0  0  0  0  0  0  0  0  0  0  0  0
    2.9250    0.2625    0.0000 C   0  0  0  0  0  0  0  0  0  0  0  0
    1.4917   -1.3917    0.0000 N   0  0  3  0  0  0  0  0  0  0  0  0
    2.9167   -1.3917    0.0000 N   0  0  0  0  0  0  0  0  0  0  0  0
    4.3417    0.2583    0.0000 C   0  0  0  0  0  0  0  0  0  0  0  0
    2.9250    1.0833    0.0000 N   0  0  0  0  0  0  0  0  0  0  0  0
    4.3417    1.0708    0.0000 N   0  0  0  0  0  0  0  0  0  0  0  0
    0.7792   -0.9667    0.0000 N   0  0  0  0  0  0  0  0  0  0  0  0
    3.6292   -0.9792    0.0000 C   0  0  0  0  0  0  0  0  0  0  0  0
    0.7792   -0.1542    0.0000 C   0  0  0  0  0  0  0  0  0  0  0  0
    1.4917   -2.2375    0.0000 C   0  0  0  0  0  0  0  0  0  0  0  0
    2.2167   -2.6625    0.0000 C   0  0  0  0  0  0  0  0  0  0  0  0
    2.2125   -3.5167    0.0000 C   0  0  0  0  0  0  0  0  0  0  0  0
    5.0542   -0.1542    0.0000 C   0  0  0  0  0  0  0  0  0  0  0  0
    0.7417   -2.6625    0.0000 C   0  0  0  0  0  0  0  0  0  0  0  0
    1.4750   -3.9417    0.0000 C   0  0  0  0  0  0  0  0  0  0  0  0
    0.7375   -3.5042    0.0000 C   0  0  0  0  0  0  0  0  0  0  0  0
    5.0542   -0.9667    0.0000 C   0  0  0  0  0  0  0  0  0  0  0  0
    5.7542    0.2500    0.0000 C   0  0  0  0  0  0  0  0  0  0  0  0
    2.9792   -3.9750    0.0000 Cl  0  0  0  0  0  0  0  0  0  0  0  0
    6.4625   -0.1542    0.0000 C   0  0  0  0  0  0  0  0  0  0  0  0
    5.7625   -1.3792    0.0000 C   0  0  0  0  0  0  0  0  0  0  0  0
    6.4667   -0.9667    0.0000 C   0  0  0  0  0  0  0  0  0  0  0  0
    1.4625   -4.8292    0.0000 C   0  0  0  0  0  0  0  0  0  0  0  0
    7.1667   -1.3667    0.0000 C   0  0  0  0  0  0  0  0  0  0  0  0
  2  6  1  0  0  0  0
  3  4  1  0  0  0  0
  4  1  1  0  0  0  0
  5  2  1  0  0  0  0
  6 11  2  0  0  0  0
  7  1  1  0  0  0  0
  8  4  2  0  0  0  0
  9  7  2  0  0  0  0
 10 12  2  0  0  0  0
 11  1  1  0  0  0  0
 12  3  1  0  0  0  0
 13  5  1  0  0  0  0
 14 13  1  0  0  0  0
 15 14  2  0  0  0  0
 16  7  1  0  0  0  0
 17 13  2  0  0  0  0
 18 19  2  0  0  0  0
 19 17  1  0  0  0  0
 20 16  1  0  0  0  0
 21 16  2  0  0  0  0
 22 15  1  0  0  0  0
 23 21  1  0  0  0  0
 24 20  2  0  0  0  0
 25 23  2  0  0  0  0
 26 18  1  0  0  0  0
 27 25  1  0  0  0  0
  8  9  1  0  0  0  0
  2  3  2  0  0  0  0
 10  5  1  0  0  0  0
 25 24  1  0  0  0  0
 15 18  1  0  0  0  0
M  END
>  <Code> (P7009537)
P7009537

>  <Number of H-Donors> (P7009537)
0

>  <Number of H-Acceptors> (P7009537)
4

>  <Number of Rotatable bonds> (P7009537)
2

>  <CLogP> (P7009537)
4.900000000000000e+000

>  <Number of Rings> (P7009537)
5

>  <PSA> (P7009537)
6.090000000000000e+001

$$$$

  -ISIS-  11102212342D

 33 37  0  0  0  0  0  0  0  0999 V2000
    8.4292   -3.2417    0.0000 C   0  0  0  0  0  0  0  0  0  0  0  0
    7.7417   -3.6375    0.0000 N   0  0  0  0  0  0  0  0  0  0  0  0
    7.0500   -3.2417    0.0000 C   0  0  0  0  0  0  0  0  0  0  0  0
    9.1292   -3.6417    0.0000 N   0  0  3  0  0  0  0  0  0  0  0  0
    7.0500   -2.4375    0.0000 N   0  0  0  0  0  0  0  0  0  0  0  0
    8.4292   -2.4375    0.0000 C   0  0  0  0  0  0  0  0  0  0  0  0
    9.8167   -3.2417    0.0000 N   0  0  0  0  0  0  0  0  0  0  0  0
    7.7417   -2.0292    0.0000 C   0  0  0  0  0  0  0  0  0  0  0  0
    9.8250   -2.4417    0.0000 C   0  0  0  0  0  0  0  0  0  0  0  0
    6.3292   -3.6542    0.0000 N   0  0  3  0  0  0  0  0  0  0  0  0
    4.8917   -4.4875    0.0000 N   0  0  3  0  0  0  0  0  0  0  0  0
    4.1750   -4.9042    0.0000 C   0  0  0  0  0  0  0  0  0  0  0  0
    9.1292   -4.4417    0.0000 C   0  0  0  0  0  0  0  0  0  0  0  0
    6.3292   -4.4792    0.0000 C   0  0  0  0  0  0  0  0  0  0  0  0
    5.6167   -3.2417    0.0000 C   0  0  0  0  0  0  0  0  0  0  0  0
    5.6167   -4.8917    0.0000 C   0  0  0  0  0  0  0  0  0  0  0  0
    4.8917   -3.6542    0.0000 C   0  0  0  0  0  0  0  0  0  0  0  0
    4.1792   -5.7292    0.0000 C   0  0  0  0  0  0  0  0  0  0  0  0
    7.7417   -1.1917    0.0000 N   0  0  0  0  0  0  0  0  0  0  0  0
    8.4250   -4.8417    0.0000 C   0  0  0  0  0  0  0  0  0  0  0  0
    9.8167   -4.8417    0.0000 C   0  0  0  0  0  0  0  0  0  0  0  0
    4.9042   -6.1417    0.0000 F   0  0  0  0  0  0  0  0  0  0  0  0
    8.4250   -5.6417    0.0000 C   0  0  0  0  0  0  0  0  0  0  0  0
    9.8167   -5.6417    0.0000 C   0  0  0  0  0  0  0  0  0  0  0  0
    9.1250   -6.0542    0.0000 C   0  0  0  0  0  0  0  0  0  0  0  0
    6.2917    0.4708    0.0000 O   0  0  0  0  0  0  0  0  0  0  0  0
    3.4625   -4.4875    0.0000 C   0  0  0  0  0  0  0  0  0  0  0  0
    7.0167   -0.7792    0.0000 C   0  0  0  0  0  0  0  0  0  0  0  0
    3.4625   -6.1417    0.0000 C   0  0  0  0  0  0  0  0  0  0  0  0
    7.0167    0.0583    0.0000 C   0  0  0  0  0  0  0  0  0  0  0  0
    9.1292   -6.8792    0.0000 C   0  0  0  0  0  0  0  0  0  0  0  0
    2.7417   -4.9000    0.0000 C   0  0  0  0  0  0  0  0  0  0  0  0
    2.7417   -5.7292    0.0000 C   0  0  0  0  0  0  0  0  0  0  0  0
  2  1  2  0  0  0  0
  3  2  1  0  0  0  0
  4  1  1  0  0  0  0
  5  8  1  0  0  0  0
  6  1  1  0  0  0  0
  7  4  1  0  0  0  0
  8  6  2  0  0  0  0
  9  6  1  0  0  0  0
 10  3  1  0  0  0  0
 11 17  1  0  0  0  0
 12 11  1  0  0  0  0
 13  4  1  0  0  0  0
 14 10  1  0  0  0  0
 15 10  1  0  0  0  0
 16 14  1  0  0  0  0
 17 15  1  0  0  0  0
 18 12  1  0  0  0  0
 19  8  1  0  0  0  0
 20 13  2  0  0  0  0
 21 13  1  0  0  0  0
 22 18  1  0  0  0  0
 23 20  1  0  0  0  0
 24 21  2  0  0  0  0
 25 24  1  0  0  0  0
 26 30  1  0  0  0  0
 27 12  2  0  0  0  0
 28 19  1  0  0  0  0
 29 18  2  0  0  0  0
 30 28  1  0  0  0  0
 31 25  1  0  0  0  0
 32 27  1  0  0  0  0
 33 32  2  0  0  0  0
  7  9  2  0  0  0  0
  3  5  2  0  0  0  0
 23 25  2  0  0  0  0
 16 11  1  0  0  0  0
 29 33  1  0  0  0  0
M  END
>  <Code> (P7009488)
P7009488

>  <Number of H-Donors> (P7009488)
2

>  <Number of H-Acceptors> (P7009488)
7

>  <Number of Rotatable bonds> (P7009488)
6

>  <CLogP> (P7009488)
3.900000000000000e+000

>  <Number of Rings> (P7009488)
5

>  <PSA> (P7009488)
8.229999999999998e+001

$$$$

  -ISIS-  11102212342D

 29 32  0  0  0  0  0  0  0  0999 V2000
    0.3125  -25.4417    0.0000 C   0  0  0  0  0  0  0  0  0  0  0  0
    0.3125  -24.5792    0.0000 C   0  0  0  0  0  0  0  0  0  0  0  0
    1.0875  -25.7167    0.0000 N   0  0  3  0  0  0  0  0  0  0  0  0
    1.0875  -24.3042    0.0000 C   0  0  0  0  0  0  0  0  0  0  0  0
    1.5500  -24.9875    0.0000 C   0  0  0  0  0  0  0  0  0  0  0  0
   -0.3833  -25.8792    0.0000 N   0  0  0  0  0  0  0  0  0  0  0  0
   -0.3833  -24.1417    0.0000 C   0  0  0  0  0  0  0  0  0  0  0  0
   -1.0833  -24.5792    0.0000 N   0  0  0  0  0  0  0  0  0  0  0  0
   -1.0833  -25.4417    0.0000 C   0  0  0  0  0  0  0  0  0  0  0  0
    0.8417  -26.5292    0.0000 C   0  0  0  0  0  0  0  0  0  0  0  0
    1.1625  -23.7167    0.0000 C   0  0  0  0  0  0  0  0  0  0  0  0
   -0.3833  -23.3167    0.0000 N   0  0  0  0  0  0  0  0  0  0  0  0
   -1.0958  -22.0792    0.0000 C   0  0  0  0  0  0  0  0  0  0  0  0
   -1.8125  -20.8417    0.0000 O   0  0  0  0  0  0  0  0  0  0  0  0
   -1.0958  -22.9042    0.0000 C   0  0  0  0  0  0  0  0  0  0  0  0
    1.5750  -26.9167    0.0000 C   0  0  0  0  0  0  0  0  0  0  0  0
    0.1542  -27.0000    0.0000 C   0  0  0  0  0  0  0  0  0  0  0  0
    0.7875  -22.9917    0.0000 C   0  0  0  0  0  0  0  0  0  0  0  0
    2.0042  -23.7167    0.0000 C   0  0  0  0  0  0  0  0  0  0  0  0
   -1.8125  -21.6667    0.0000 C   0  0  0  0  0  0  0  0  0  0  0  0
   -2.5333  -20.4417    0.0000 C   0  0  3  0  0  0  0  0  0  0  0  0
   -3.2458  -20.8625    0.0000 C   0  0  0  0  0  0  0  0  0  0  0  0
   -2.5458  -19.6167    0.0000 C   0  0  0  0  0  0  0  0  0  0  0  0
    1.1875  -22.2167    0.0000 C   0  0  0  0  0  0  0  0  0  0  0  0
    1.6250  -27.7667    0.0000 C   0  0  0  0  0  0  0  0  0  0  0  0
    0.2042  -27.8500    0.0000 C   0  0  0  0  0  0  0  0  0  0  0  0
    2.4000  -22.9917    0.0000 C   0  0  0  0  0  0  0  0  0  0  0  0
    0.9542  -28.2292    0.0000 C   0  0  0  0  0  0  0  0  0  0  0  0
    2.0042  -22.2167    0.0000 C   0  0  0  0  0  0  0  0  0  0  0  0
  2  1  2  0  0  0  0
  3  1  1  0  0  0  0
  4  2  1  0  0  0  0
  5  3  1  0  0  0  0
  6  1  1  0  0  0  0
  7  2  1  0  0  0  0
  8  9  1  0  0  0  0
  9  6  2  0  0  0  0
 10  3  1  0  0  0  0
 11  4  1  0  0  0  0
 12  7  1  0  0  0  0
 13 15  1  0  0  0  0
 14 20  1  0  0  0  0
 15 12  1  0  0  0  0
 16 10  2  0  0  0  0
 17 10  1  0  0  0  0
 18 11  1  0  0  0  0
 19 11  2  0  0  0  0
 20 13  1  0  0  0  0
 21 14  1  0  0  0  0
 22 21  1  0  0  0  0
 23 21  1  0  0  0  0
 24 18  2  0  0  0  0
 25 16  1  0  0  0  0
 26 17  2  0  0  0  0
 27 19  1  0  0  0  0
 28 26  1  0  0  0  0
 29 27  2  0  0  0  0
  5  4  2  0  0  0  0
  8  7  2  0  0  0  0
 28 25  2  0  0  0  0
 29 24  1  0  0  0  0
M  END
>  <Code> (P7008860)
P7008860

>  <Number of H-Donors> (P7008860)
1

>  <Number of H-Acceptors> (P7008860)
4

>  <Number of Rotatable bonds> (P7008860)
8

>  <CLogP> (P7008860)
4.400000000000000e+000

>  <Number of Rings> (P7008860)
4

>  <PSA> (P7008860)
5.200000000000000e+001

$$$$

  -ISIS-  11102212342D

 32 36  0  0  0  0  0  0  0  0999 V2000
    3.7292   -7.1042    0.0000 C   0  0  0  0  0  0  0  0  0  0  0  0
    3.7292   -6.2667    0.0000 N   0  0  0  0  0  0  0  0  0  0  0  0
    4.4292   -7.5250    0.0000 N   0  0  0  0  0  0  0  0  0  0  0  0
    4.4417   -5.8500    0.0000 C   0  0  0  0  0  0  0  0  0  0  0  0
    5.1417   -7.1125    0.0000 C   0  0  0  0  0  0  0  0  0  0  0  0
    5.1417   -6.2792    0.0000 C   0  0  0  0  0  0  0  0  0  0  0  0
    3.0167   -7.5125    0.0000 N   0  0  3  0  0  0  0  0  0  0  0  0
    1.5875   -8.3292    0.0000 N   0  0  3  0  0  0  0  0  0  0  0  0
    4.4542   -5.0167    0.0000 N   0  0  0  0  0  0  0  0  0  0  0  0
    0.8667   -8.7417    0.0000 C   0  0  0  0  0  0  0  0  0  0  0  0
    5.8375   -5.8667    0.0000 N   0  0  0  0  0  0  0  0  0  0  0  0
    5.8292   -7.5417    0.0000 N   0  0  0  0  0  0  0  0  0  0  0  0
    0.1542   -8.3167    0.0000 C   0  0  0  0  0  0  0  0  0  0  0  0
    2.3125   -7.0917    0.0000 C   0  0  0  0  0  0  0  0  0  0  0  0
    3.0167   -8.3375    0.0000 C   0  0  0  0  0  0  0  0  0  0  0  0
    1.5917   -7.5042    0.0000 C   0  0  0  0  0  0  0  0  0  0  0  0
    2.3000   -8.7417    0.0000 C   0  0  0  0  0  0  0  0  0  0  0  0
    3.7542   -4.5917    0.0000 C   0  0  0  0  0  0  0  0  0  0  0  0
   -0.5625   -8.7167    0.0000 C   0  0  0  0  0  0  0  0  0  0  0  0
    2.3750   -3.7375    0.0000 C   0  0  0  0  0  0  0  0  0  0  0  0
   -1.2750   -8.3042    0.0000 Cl  0  0  0  0  0  0  0  0  0  0  0  0
    3.7667   -3.7667    0.0000 C   0  0  0  0  0  0  0  0  0  0  0  0
    3.0500   -5.0000    0.0000 C   0  0  0  0  0  0  0  0  0  0  0  0
    3.0792   -3.3500    0.0000 C   0  0  0  0  0  0  0  0  0  0  0  0
    2.3625   -4.5792    0.0000 C   0  0  0  0  0  0  0  0  0  0  0  0
    1.6667   -3.3125    0.0000 O   0  0  0  0  0  0  0  0  0  0  0  0
    0.8667   -9.5625    0.0000 C   0  0  0  0  0  0  0  0  0  0  0  0
    0.1417   -9.9667    0.0000 C   0  0  0  0  0  0  0  0  0  0  0  0
    6.5417   -6.2792    0.0000 C   0  0  0  0  0  0  0  0  0  0  0  0
    6.5417   -7.1250    0.0000 C   0  0  0  0  0  0  0  0  0  0  0  0
   -0.5708   -9.5500    0.0000 C   0  0  0  0  0  0  0  0  0  0  0  0
    0.9542   -3.7167    0.0000 C   0  0  0  0  0  0  0  0  0  0  0  0
  2  1  1  0  0  0  0
  3  1  2  0  0  0  0
  4  2  2  0  0  0  0
  5  3  1  0  0  0  0
  6  5  2  0  0  0  0
  7  1  1  0  0  0  0
  8 17  1  0  0  0  0
  9  4  1  0  0  0  0
 10  8  1  0  0  0  0
 11  6  1  0  0  0  0
 12  5  1  0  0  0  0
 13 10  2  0  0  0  0
 14  7  1  0  0  0  0
 15  7  1  0  0  0  0
 16 14  1  0  0  0  0
 17 15  1  0  0  0  0
 18  9  1  0  0  0  0
 19 13  1  0  0  0  0
 20 25  1  0  0  0  0
 21 19  1  0  0  0  0
 22 18  2  0  0  0  0
 23 18  1  0  0  0  0
 24 22  1  0  0  0  0
 25 23  2  0  0  0  0
 26 20  1  0  0  0  0
 27 10  1  0  0  0  0
 28 27  2  0  0  0  0
 29 30  1  0  0  0  0
 30 12  2  0  0  0  0
 31 28  1  0  0  0  0
 32 26  1  0  0  0  0
 16  8  1  0  0  0  0
  6  4  1  0  0  0  0
 29 11  2  0  0  0  0
 24 20  2  0  0  0  0
 19 31  2  0  0  0  0
M  END
>  <Code> (P7008546)
P7008546

>  <Number of H-Donors> (P7008546)
1

>  <Number of H-Acceptors> (P7008546)
8

>  <Number of Rotatable bonds> (P7008546)
5

>  <CLogP> (P7008546)
3.500000000000000e+000

>  <Number of Rings> (P7008546)
5

>  <PSA> (P7008546)
7.930000000000001e+001

$$$$

  -ISIS-  11102212342D

 31 35  0  0  0  0  0  0  0  0999 V2000
    3.6917   -7.0375    0.0000 C   0  0  0  0  0  0  0  0  0  0  0  0
    3.6917   -6.2042    0.0000 N   0  0  0  0  0  0  0  0  0  0  0  0
    4.3875   -7.4542    0.0000 N   0  0  0  0  0  0  0  0  0  0  0  0
    4.4000   -5.7917    0.0000 C   0  0  0  0  0  0  0  0  0  0  0  0
    5.0917   -7.0417    0.0000 C   0  0  0  0  0  0  0  0  0  0  0  0
    5.0917   -6.2167    0.0000 C   0  0  0  0  0  0  0  0  0  0  0  0
    2.9792   -7.4417    0.0000 N   0  0  3  0  0  0  0  0  0  0  0  0
    1.5292   -8.2625    0.0000 N   0  0  3  0  0  0  0  0  0  0  0  0
    4.4125   -4.9667    0.0000 N   0  0  0  0  0  0  0  0  0  0  0  0
    5.7792   -5.8125    0.0000 N   0  0  0  0  0  0  0  0  0  0  0  0
    5.7750   -7.4667    0.0000 N   0  0  0  0  0  0  0  0  0  0  0  0
    2.2667   -7.0167    0.0000 C   0  0  0  0  0  0  0  0  0  0  0  0
    2.9750   -8.2667    0.0000 C   0  0  0  0  0  0  0  0  0  0  0  0
    1.5417   -7.4292    0.0000 C   0  0  0  0  0  0  0  0  0  0  0  0
    2.2542   -8.6792    0.0000 C   0  0  0  0  0  0  0  0  0  0  0  0
    0.8167   -8.6750    0.0000 C   0  0  0  0  0  0  0  0  0  0  0  0
    3.7167   -4.5500    0.0000 C   0  0  0  0  0  0  0  0  0  0  0  0
    2.3500   -3.7000    0.0000 C   0  0  0  0  0  0  0  0  0  0  0  0
    3.0167   -4.9500    0.0000 C   0  0  0  0  0  0  0  0  0  0  0  0
    3.7292   -3.7292    0.0000 C   0  0  0  0  0  0  0  0  0  0  0  0
    2.3375   -4.5375    0.0000 C   0  0  0  0  0  0  0  0  0  0  0  0
    3.0542   -3.3167    0.0000 C   0  0  0  0  0  0  0  0  0  0  0  0
    1.6542   -3.2792    0.0000 O   0  0  0  0  0  0  0  0  0  0  0  0
    6.4792   -6.2167    0.0000 C   0  0  0  0  0  0  0  0  0  0  0  0
    6.4792   -7.0542    0.0000 C   0  0  0  0  0  0  0  0  0  0  0  0
    0.1000   -8.2542    0.0000 C   0  0  0  0  0  0  0  0  0  0  0  0
    0.8167   -9.5000    0.0000 C   0  0  0  0  0  0  0  0  0  0  0  0
    0.9417   -3.6792    0.0000 C   0  0  0  0  0  0  0  0  0  0  0  0
    0.1000   -9.9125    0.0000 C   0  0  0  0  0  0  0  0  0  0  0  0
   -0.6208   -8.6667    0.0000 C   0  0  0  0  0  0  0  0  0  0  0  0
   -0.6208   -9.4917    0.0000 C   0  0  0  0  0  0  0  0  0  0  0  0
  2  1  1  0  0  0  0
  3  1  2  0  0  0  0
  4  2  2  0  0  0  0
  5  3  1  0  0  0  0
  6  5  2  0  0  0  0
  7  1  1  0  0  0  0
  8 15  1  0  0  0  0
  9  4  1  0  0  0  0
 10  6  1  0  0  0  0
 11  5  1  0  0  0  0
 12  7  1  0  0  0  0
 13  7  1  0  0  0  0
 14 12  1  0  0  0  0
 15 13  1  0  0  0  0
 16  8  1  0  0  0  0
 17  9  1  0  0  0  0
 18 22  2  0  0  0  0
 19 17  1  0  0  0  0
 20 17  2  0  0  0  0
 21 19  2  0  0  0  0
 22 20  1  0  0  0  0
 23 18  1  0  0  0  0
 24 25  1  0  0  0  0
 25 11  2  0  0  0  0
 26 16  2  0  0  0  0
 27 16  1  0  0  0  0
 28 23  1  0  0  0  0
 29 27  2  0  0  0  0
 30 26  1  0  0  0  0
 31 29  1  0  0  0  0
 14  8  1  0  0  0  0
  6  4  1  0  0  0  0
 24 10  2  0  0  0  0
 18 21  1  0  0  0  0
 30 31  2  0  0  0  0
M  END
>  <Code> (P7008545)
P7008545

>  <Number of H-Donors> (P7008545)
1

>  <Number of H-Acceptors> (P7008545)
8

>  <Number of Rotatable bonds> (P7008545)
5

>  <CLogP> (P7008545)
2.800000000000000e+000

>  <Number of Rings> (P7008545)
5

>  <PSA> (P7008545)
7.930000000000001e+001

$$$$

  -ISIS-  11102212342D

 26 29  0  0  0  0  0  0  0  0999 V2000
    5.7667   -2.3750    0.0000 N   0  0  0  0  0  0  0  0  0  0  0  0
    6.4750   -1.9625    0.0000 C   0  0  0  0  0  0  0  0  0  0  0  0
    5.7667   -3.2042    0.0000 C   0  0  0  0  0  0  0  0  0  0  0  0
    6.4625   -3.6250    0.0000 N   0  0  0  0  0  0  0  0  0  0  0  0
    7.1750   -2.3875    0.0000 C   0  0  0  0  0  0  0  0  0  0  0  0
    7.1667   -3.2125    0.0000 C   0  0  0  0  0  0  0  0  0  0  0  0
    6.4917   -1.1417    0.0000 N   0  0  0  0  0  0  0  0  0  0  0  0
    5.0125   -3.6375    0.0000 N   0  0  0  0  0  0  0  0  0  0  0  0
    7.8750   -1.9750    0.0000 N   0  0  0  0  0  0  0  0  0  0  0  0
    7.8667   -3.6375    0.0000 N   0  0  0  0  0  0  0  0  0  0  0  0
    5.7917   -0.7167    0.0000 C   0  0  0  0  0  0  0  0  0  0  0  0
    5.0042   -4.5000    0.0000 C   0  0  0  0  0  0  0  0  0  0  0  0
    4.4042    0.1250    0.0000 C   0  0  0  0  0  0  0  0  0  0  0  0
    4.9917   -6.2375    0.0000 C   0  0  0  0  0  0  0  0  0  0  0  0
    5.0792   -1.1250    0.0000 C   0  0  0  0  0  0  0  0  0  0  0  0
    5.8042    0.1083    0.0000 C   0  0  0  0  0  0  0  0  0  0  0  0
    4.2542   -4.9250    0.0000 C   0  0  0  0  0  0  0  0  0  0  0  0
    5.7542   -4.9375    0.0000 C   0  0  0  0  0  0  0  0  0  0  0  0
    4.3875   -0.7042    0.0000 C   0  0  0  0  0  0  0  0  0  0  0  0
    5.7417   -5.8042    0.0000 C   0  0  0  0  0  0  0  0  0  0  0  0
    4.2417   -5.7917    0.0000 C   0  0  0  0  0  0  0  0  0  0  0  0
    5.1042    0.5208    0.0000 C   0  0  0  0  0  0  0  0  0  0  0  0
    8.5792   -2.3875    0.0000 C   0  0  0  0  0  0  0  0  0  0  0  0
    8.5792   -3.2167    0.0000 C   0  0  0  0  0  0  0  0  0  0  0  0
    3.7042    0.5500    0.0000 C   0  0  0  0  0  0  0  0  0  0  0  0
    4.9792   -7.0667    0.0000 C   0  0  0  0  0  0  0  0  0  0  0  0
  2  1  2  0  0  0  0
  3  1  1  0  0  0  0
  4  3  2  0  0  0  0
  5  2  1  0  0  0  0
  6  4  1  0  0  0  0
  7  2  1  0  0  0  0
  8  3  1  0  0  0  0
  9  5  1  0  0  0  0
 10  6  1  0  0  0  0
 11  7  1  0  0  0  0
 12  8  1  0  0  0  0
 13 22  2  0  0  0  0
 14 20  1  0  0  0  0
 15 11  1  0  0  0  0
 16 11  2  0  0  0  0
 17 12  2  0  0  0  0
 18 12  1  0  0  0  0
 19 15  2  0  0  0  0
 20 18  2  0  0  0  0
 21 17  1  0  0  0  0
 22 16  1  0  0  0  0
 23  9  2  0  0  0  0
 24 10  2  0  0  0  0
 25 13  1  0  0  0  0
 26 14  1  0  0  0  0
  6  5  2  0  0  0  0
 21 14  2  0  0  0  0
 24 23  1  0  0  0  0
 13 19  1  0  0  0  0
M  END
>  <Code> (P7008543)
P7008543

>  <Number of H-Donors> (P7008543)
2

>  <Number of H-Acceptors> (P7008543)
6

>  <Number of Rotatable bonds> (P7008543)
4

>  <CLogP> (P7008543)
3.600000000000000e+000

>  <Number of Rings> (P7008543)
4

>  <PSA> (P7008543)
7.559999999999999e+001

$$$$

  -ISIS-  11102212342D

 27 30  0  0  0  0  0  0  0  0999 V2000
    4.1500   -1.8292    0.0000 N   0  0  0  0  0  0  0  0  0  0  0  0
    4.8667   -1.4292    0.0000 C   0  0  0  0  0  0  0  0  0  0  0  0
    4.1500   -2.6667    0.0000 C   0  0  0  0  0  0  0  0  0  0  0  0
    4.8542   -3.0875    0.0000 N   0  0  0  0  0  0  0  0  0  0  0  0
    5.5667   -1.8625    0.0000 C   0  0  0  0  0  0  0  0  0  0  0  0
    5.5667   -2.6750    0.0000 C   0  0  0  0  0  0  0  0  0  0  0  0
    3.2042   -4.1500    0.0000 N   0  0  3  0  0  0  0  0  0  0  0  0
    4.8792   -0.6042    0.0000 N   0  0  0  0  0  0  0  0  0  0  0  0
    3.2167   -3.1542    0.0000 N   0  0  0  0  0  0  0  0  0  0  0  0
    3.1750   -6.1375    0.0000 N   0  0  3  0  0  0  0  0  0  0  0  0
    6.2667   -1.4417    0.0000 N   0  0  0  0  0  0  0  0  0  0  0  0
    6.2667   -3.0917    0.0000 N   0  0  0  0  0  0  0  0  0  0  0  0
    2.3625   -4.6292    0.0000 C   0  0  0  0  0  0  0  0  0  0  0  0
    4.0417   -4.6542    0.0000 C   0  0  0  0  0  0  0  0  0  0  0  0
    4.0167   -5.6542    0.0000 C   0  0  0  0  0  0  0  0  0  0  0  0
    2.3417   -5.6250    0.0000 C   0  0  0  0  0  0  0  0  0  0  0  0
    4.1792   -0.1917    0.0000 C   0  0  0  0  0  0  0  0  0  0  0  0
    3.1542   -7.1125    0.0000 C   0  0  0  0  0  0  0  0  0  0  0  0
    3.9750   -8.5792    0.0000 O   0  0  0  0  0  0  0  0  0  0  0  0
    6.9875   -1.8625    0.0000 C   0  0  0  0  0  0  0  0  0  0  0  0
    6.9875   -2.6792    0.0000 C   0  0  0  0  0  0  0  0  0  0  0  0
    3.9917   -7.6125    0.0000 C   0  0  0  0  0  0  0  0  0  0  0  0
    4.1875    0.6333    0.0000 C   0  0  0  0  0  0  0  0  0  0  0  0
    3.4667   -0.5917    0.0000 C   0  0  0  0  0  0  0  0  0  0  0  0
    3.4875    1.0583    0.0000 C   0  0  0  0  0  0  0  0  0  0  0  0
    2.7542   -0.1750    0.0000 C   0  0  0  0  0  0  0  0  0  0  0  0
    2.7792    0.6500    0.0000 C   0  0  0  0  0  0  0  0  0  0  0  0
  2  1  2  0  0  0  0
  3  1  1  0  0  0  0
  4  3  2  0  0  0  0
  5  2  1  0  0  0  0
  6  4  1  0  0  0  0
  7  9  1  0  0  0  0
  8  2  1  0  0  0  0
  9  3  1  0  0  0  0
 10 15  1  0  0  0  0
 11  5  1  0  0  0  0
 12  6  1  0  0  0  0
 13  7  1  0  0  0  0
 14  7  1  0  0  0  0
 15 14  1  0  0  0  0
 16 13  1  0  0  0  0
 17  8  1  0  0  0  0
 18 10  1  0  0  0  0
 19 22  1  0  0  0  0
 20 11  2  0  0  0  0
 21 12  2  0  0  0  0
 22 18  1  0  0  0  0
 23 17  2  0  0  0  0
 24 17  1  0  0  0  0
 25 23  1  0  0  0  0
 26 24  2  0  0  0  0
 27 26  1  0  0  0  0
  6  5  2  0  0  0  0
 16 10  1  0  0  0  0
 21 20  1  0  0  0  0
 25 27  2  0  0  0  0
M  END
>  <Code> (P7008541)
P7008541

>  <Number of H-Donors> (P7008541)
3

>  <Number of H-Acceptors> (P7008541)
9

>  <Number of Rotatable bonds> (P7008541)
6

>  <CLogP> (P7008541)
2.000000000000000e-001

>  <Number of Rings> (P7008541)
4

>  <PSA> (P7008541)
1.023000000000000e+002

$$$$

  -ISIS-  11102212342D

 32 36  0  0  0  0  0  0  0  0999 V2000
    4.1167   -1.8167    0.0000 N   0  0  0  0  0  0  0  0  0  0  0  0
    4.8292   -1.4167    0.0000 C   0  0  0  0  0  0  0  0  0  0  0  0
    4.1167   -2.6500    0.0000 C   0  0  0  0  0  0  0  0  0  0  0  0
    4.8167   -3.0625    0.0000 N   0  0  0  0  0  0  0  0  0  0  0  0
    5.5292   -1.8417    0.0000 C   0  0  0  0  0  0  0  0  0  0  0  0
    5.5292   -2.6542    0.0000 C   0  0  0  0  0  0  0  0  0  0  0  0
    3.1500   -6.0917    0.0000 N   0  0  3  0  0  0  0  0  0  0  0  0
    3.1792   -4.1167    0.0000 N   0  0  3  0  0  0  0  0  0  0  0  0
    4.8417   -0.6000    0.0000 N   0  0  0  0  0  0  0  0  0  0  0  0
    3.1917   -3.1292    0.0000 N   0  0  0  0  0  0  0  0  0  0  0  0
    3.1292   -7.0542    0.0000 C   0  0  0  0  0  0  0  0  0  0  0  0
    6.2167   -1.4375    0.0000 N   0  0  0  0  0  0  0  0  0  0  0  0
    6.2167   -3.0667    0.0000 N   0  0  0  0  0  0  0  0  0  0  0  0
    3.9917   -5.6125    0.0000 C   0  0  0  0  0  0  0  0  0  0  0  0
    2.3292   -5.5792    0.0000 C   0  0  0  0  0  0  0  0  0  0  0  0
    4.0125   -4.6167    0.0000 C   0  0  0  0  0  0  0  0  0  0  0  0
    2.3417   -4.5917    0.0000 C   0  0  0  0  0  0  0  0  0  0  0  0
    3.9625   -7.5542    0.0000 C   0  0  0  0  0  0  0  0  0  0  0  0
    4.1500   -0.1917    0.0000 C   0  0  0  0  0  0  0  0  0  0  0  0
    4.8000   -7.0917    0.0000 O   0  0  0  0  0  0  0  0  0  0  0  0
    2.2875   -7.5250    0.0000 C   0  0  0  0  0  0  0  0  0  0  0  0
    6.9375   -1.8417    0.0000 C   0  0  0  0  0  0  0  0  0  0  0  0
    6.9375   -2.6625    0.0000 C   0  0  0  0  0  0  0  0  0  0  0  0
    3.9500   -8.5167    0.0000 C   0  0  0  0  0  0  0  0  0  0  0  0
    4.1542    0.6250    0.0000 C   0  0  0  0  0  0  0  0  0  0  0  0
    3.4417   -0.5917    0.0000 C   0  0  0  0  0  0  0  0  0  0  0  0
    4.8167   -6.1250    0.0000 C   0  0  0  0  0  0  0  0  0  0  0  0
    2.2667   -8.4917    0.0000 C   0  0  0  0  0  0  0  0  0  0  0  0
    3.0917   -8.9917    0.0000 C   0  0  0  0  0  0  0  0  0  0  0  0
    2.7375   -0.1667    0.0000 C   0  0  0  0  0  0  0  0  0  0  0  0
    3.4625    1.0458    0.0000 C   0  0  0  0  0  0  0  0  0  0  0  0
    2.7625    0.6458    0.0000 C   0  0  0  0  0  0  0  0  0  0  0  0
  2  1  2  0  0  0  0
  3  1  1  0  0  0  0
  4  3  2  0  0  0  0
  5  2  1  0  0  0  0
  6  4  1  0  0  0  0
  7 15  1  0  0  0  0
  8 10  1  0  0  0  0
  9  2  1  0  0  0  0
 10  3  1  0  0  0  0
 11  7  1  0  0  0  0
 12  5  1  0  0  0  0
 13  6  1  0  0  0  0
 14 16  1  0  0  0  0
 15 17  1  0  0  0  0
 16  8  1  0  0  0  0
 17  8  1  0  0  0  0
 18 11  1  0  0  0  0
 19  9  1  0  0  0  0
 20 18  1  0  0  0  0
 21 11  2  0  0  0  0
 22 12  2  0  0  0  0
 23 13  2  0  0  0  0
 24 18  2  0  0  0  0
 25 19  2  0  0  0  0
 26 19  1  0  0  0  0
 27 20  1  0  0  0  0
 28 21  1  0  0  0  0
 29 28  2  0  0  0  0
 30 26  2  0  0  0  0
 31 25  1  0  0  0  0
 32 30  1  0  0  0  0
  6  5  2  0  0  0  0
 14  7  1  0  0  0  0
 23 22  1  0  0  0  0
 31 32  2  0  0  0  0
 24 29  1  0  0  0  0
M  END
>  <Code> (P7008540)
P7008540

>  <Number of H-Donors> (P7008540)
2

>  <Number of H-Acceptors> (P7008540)
9

>  <Number of Rotatable bonds> (P7008540)
6

>  <CLogP> (P7008540)
2.300000000000000e+000

>  <Number of Rings> (P7008540)
5

>  <PSA> (P7008540)
9.129999999999998e+001

$$$$

  -ISIS-  11102212342D

 24 27  0  0  0  0  0  0  0  0999 V2000
    2.7375   -3.8875    0.0000 N   0  0  0  0  0  0  0  0  0  0  0  0
    3.3667   -3.4792    0.0000 C   0  0  0  0  0  0  0  0  0  0  0  0
    2.7375   -4.7292    0.0000 C   0  0  0  0  0  0  0  0  0  0  0  0
    3.3542   -5.1500    0.0000 N   0  0  0  0  0  0  0  0  0  0  0  0
    3.9792   -3.9167    0.0000 C   0  0  0  0  0  0  0  0  0  0  0  0
    3.9792   -4.7292    0.0000 C   0  0  0  0  0  0  0  0  0  0  0  0
    3.3792   -2.6542    0.0000 N   0  0  0  0  0  0  0  0  0  0  0  0
    1.9250   -5.2125    0.0000 N   0  0  0  0  0  0  0  0  0  0  0  0
    4.6000   -3.5000    0.0000 N   0  0  0  0  0  0  0  0  0  0  0  0
    4.5917   -5.1542    0.0000 N   0  0  0  0  0  0  0  0  0  0  0  0
    2.7625   -2.2417    0.0000 C   0  0  0  0  0  0  0  0  0  0  0  0
    1.9042   -6.2167    0.0000 C   0  0  0  0  0  0  0  0  0  0  0  0
    5.2292   -3.9167    0.0000 C   0  0  0  0  0  0  0  0  0  0  0  0
    5.2292   -4.7417    0.0000 C   0  0  0  0  0  0  0  0  0  0  0  0
    2.7667   -1.4167    0.0000 C   0  0  0  0  0  0  0  0  0  0  0  0
    2.1417   -2.6417    0.0000 C   0  0  0  0  0  0  0  0  0  0  0  0
    1.0875   -6.7125    0.0000 C   0  0  0  0  0  0  0  0  0  0  0  0
    2.7042   -6.7417    0.0000 C   0  0  0  0  0  0  0  0  0  0  0  0
    2.1542   -0.9917    0.0000 C   0  0  0  0  0  0  0  0  0  0  0  0
    2.6875   -7.7542    0.0000 C   0  0  0  0  0  0  0  0  0  0  0  0
    1.0667   -7.7167    0.0000 C   0  0  0  0  0  0  0  0  0  0  0  0
    1.5167   -2.2167    0.0000 C   0  0  0  0  0  0  0  0  0  0  0  0
    1.8750   -8.2417    0.0000 C   0  0  0  0  0  0  0  0  0  0  0  0
    1.5375   -1.3917    0.0000 C   0  0  0  0  0  0  0  0  0  0  0  0
  2  1  2  0  0  0  0
  3  1  1  0  0  0  0
  4  3  2  0  0  0  0
  5  2  1  0  0  0  0
  6  4  1  0  0  0  0
  7  2  1  0  0  0  0
  8  3  1  0  0  0  0
  9  5  1  0  0  0  0
 10  6  1  0  0  0  0
 11  7  1  0  0  0  0
 12  8  1  0  0  0  0
 13  9  2  0  0  0  0
 14 10  2  0  0  0  0
 15 11  2  0  0  0  0
 16 11  1  0  0  0  0
 17 12  2  0  0  0  0
 18 12  1  0  0  0  0
 19 15  1  0  0  0  0
 20 18  2  0  0  0  0
 21 17  1  0  0  0  0
 22 16  2  0  0  0  0
 23 20  1  0  0  0  0
 24 22  1  0  0  0  0
  6  5  2  0  0  0  0
 14 13  1  0  0  0  0
 21 23  2  0  0  0  0
 19 24  2  0  0  0  0
M  END
>  <Code> (P7008539)
P7008539

>  <Number of H-Donors> (P7008539)
2

>  <Number of H-Acceptors> (P7008539)
6

>  <Number of Rotatable bonds> (P7008539)
4

>  <CLogP> (P7008539)
2.600000000000000e+000

>  <Number of Rings> (P7008539)
4

>  <PSA> (P7008539)
7.559999999999999e+001

$$$$

  -ISIS-  11102212342D

 23 25  0  0  0  0  0  0  0  0999 V2000
    5.6042   -2.7167    0.0000 N   0  0  0  0  0  0  0  0  0  0  0  0
    5.6042   -3.5417    0.0000 C   0  0  0  0  0  0  0  0  0  0  0  0
    6.3167   -3.9542    0.0000 N   0  0  0  0  0  0  0  0  0  0  0  0
    6.3167   -2.3000    0.0000 C   0  0  0  0  0  0  0  0  0  0  0  0
    7.0292   -3.5417    0.0000 C   0  0  0  0  0  0  0  0  0  0  0  0
    7.0292   -2.7125    0.0000 C   0  0  0  0  0  0  0  0  0  0  0  0
    4.8917   -3.9542    0.0000 N   0  0  0  0  0  0  0  0  0  0  0  0
    7.7500   -2.2917    0.0000 N   0  0  0  0  0  0  0  0  0  0  0  0
    7.7542   -3.9542    0.0000 N   0  0  0  0  0  0  0  0  0  0  0  0
    6.3250   -1.4667    0.0000 N   0  0  0  0  0  0  0  0  0  0  0  0
    4.8917   -4.7792    0.0000 C   0  0  0  0  0  0  0  0  0  0  0  0
    4.8917   -6.4292    0.0000 C   0  0  0  0  0  0  0  0  0  0  0  0
    4.8917   -7.2542    0.0000 F   0  0  0  0  0  0  0  0  0  0  0  0
    5.6042   -5.1917    0.0000 C   0  0  0  0  0  0  0  0  0  0  0  0
    4.1792   -5.1917    0.0000 C   0  0  0  0  0  0  0  0  0  0  0  0
    5.6042   -6.0167    0.0000 C   0  0  0  0  0  0  0  0  0  0  0  0
    4.1792   -6.0167    0.0000 C   0  0  0  0  0  0  0  0  0  0  0  0
    8.4625   -2.7042    0.0000 C   0  0  0  0  0  0  0  0  0  0  0  0
    8.4667   -3.5417    0.0000 C   0  0  0  0  0  0  0  0  0  0  0  0
    4.8917    0.1708    0.0000 O   0  0  0  0  0  0  0  0  0  0  0  0
    5.6042   -1.0625    0.0000 C   0  0  0  0  0  0  0  0  0  0  0  0
    5.6042   -0.2375    0.0000 C   0  0  0  0  0  0  0  0  0  0  0  0
    4.8917    0.9958    0.0000 C   0  0  0  0  0  0  0  0  0  0  0  0
  2  1  2  0  0  0  0
  3  2  1  0  0  0  0
  4  1  1  0  0  0  0
  5  6  1  0  0  0  0
  6  4  2  0  0  0  0
  7  2  1  0  0  0  0
  8  6  1  0  0  0  0
  9  5  1  0  0  0  0
 10  4  1  0  0  0  0
 11  7  1  0  0  0  0
 12 17  2  0  0  0  0
 13 12  1  0  0  0  0
 14 11  1  0  0  0  0
 15 11  2  0  0  0  0
 16 14  2  0  0  0  0
 17 15  1  0  0  0  0
 18  8  2  0  0  0  0
 19 18  1  0  0  0  0
 20 22  1  0  0  0  0
 21 10  1  0  0  0  0
 22 21  1  0  0  0  0
 23 20  1  0  0  0  0
  3  5  2  0  0  0  0
 19  9  2  0  0  0  0
 16 12  1  0  0  0  0
M  END
>  <Code> (P7008535)
P7008535

>  <Number of H-Donors> (P7008535)
2

>  <Number of H-Acceptors> (P7008535)
7

>  <Number of Rotatable bonds> (P7008535)
6

>  <CLogP> (P7008535)
1.600000000000000e+000

>  <Number of Rings> (P7008535)
3

>  <PSA> (P7008535)
8.490000000000002e+001

$$$$

  -ISIS-  11102212342D

 24 26  0  0  0  0  0  0  0  0999 V2000
    5.6042   -2.7167    0.0000 N   0  0  0  0  0  0  0  0  0  0  0  0
    6.3167   -3.9542    0.0000 N   0  0  0  0  0  0  0  0  0  0  0  0
    5.6042   -3.5417    0.0000 C   0  0  0  0  0  0  0  0  0  0  0  0
    6.3167   -2.3000    0.0000 C   0  0  0  0  0  0  0  0  0  0  0  0
    7.0292   -3.5417    0.0000 C   0  0  0  0  0  0  0  0  0  0  0  0
    7.0292   -2.7125    0.0000 C   0  0  0  0  0  0  0  0  0  0  0  0
    7.7500   -2.2917    0.0000 N   0  0  0  0  0  0  0  0  0  0  0  0
    7.7542   -3.9542    0.0000 N   0  0  0  0  0  0  0  0  0  0  0  0
    4.1792   -6.0250    0.0000 C   0  0  0  0  0  0  0  0  0  0  0  0
    4.8917   -3.9542    0.0000 N   0  0  0  0  0  0  0  0  0  0  0  0
    6.3250   -1.4667    0.0000 N   0  0  0  0  0  0  0  0  0  0  0  0
    3.4667   -6.4292    0.0000 C   0  0  0  0  0  0  0  0  0  0  0  0
    4.8917   -4.7792    0.0000 C   0  0  0  0  0  0  0  0  0  0  0  0
    4.1792   -5.2000    0.0000 C   0  0  0  0  0  0  0  0  0  0  0  0
    8.4667   -2.7042    0.0000 C   0  0  0  0  0  0  0  0  0  0  0  0
    8.4667   -3.5417    0.0000 C   0  0  0  0  0  0  0  0  0  0  0  0
    4.8917    0.1708    0.0000 O   0  0  0  0  0  0  0  0  0  0  0  0
    4.8917   -6.4292    0.0000 C   0  0  0  0  0  0  0  0  0  0  0  0
    5.6042   -1.0625    0.0000 C   0  0  0  0  0  0  0  0  0  0  0  0
    3.4667   -7.2542    0.0000 C   0  0  0  0  0  0  0  0  0  0  0  0
    5.6042   -0.2375    0.0000 C   0  0  0  0  0  0  0  0  0  0  0  0
    4.8917    0.9958    0.0000 C   0  0  0  0  0  0  0  0  0  0  0  0
    4.8917   -7.2542    0.0000 C   0  0  0  0  0  0  0  0  0  0  0  0
    4.1792   -7.6667    0.0000 C   0  0  0  0  0  0  0  0  0  0  0  0
  2  3  1  0  0  0  0
  3  1  2  0  0  0  0
  4  1  1  0  0  0  0
  5  6  1  0  0  0  0
  6  4  2  0  0  0  0
  7  6  1  0  0  0  0
  8  5  1  0  0  0  0
  9 14  1  0  0  0  0
 10  3  1  0  0  0  0
 11  4  1  0  0  0  0
 12  9  2  0  0  0  0
 13 10  1  0  0  0  0
 14 13  1  0  0  0  0
 15  7  2  0  0  0  0
 16 15  1  0  0  0  0
 17 21  1  0  0  0  0
 18  9  1  0  0  0  0
 19 11  1  0  0  0  0
 20 12  1  0  0  0  0
 21 19  1  0  0  0  0
 22 17  1  0  0  0  0
 23 18  1  0  0  0  0
 24 23  1  0  0  0  0
  2  5  2  0  0  0  0
 16  8  2  0  0  0  0
 20 24  1  0  0  0  0
M  END
>  <Code> (P7008531)
P7008531

>  <Number of H-Donors> (P7008531)
2

>  <Number of H-Acceptors> (P7008531)
7

>  <Number of Rotatable bonds> (P7008531)
8

>  <CLogP> (P7008531)
2.100000000000000e+000

>  <Number of Rings> (P7008531)
3

>  <PSA> (P7008531)
8.490000000000002e+001

$$$$

  -ISIS-  11102212342D

 24 26  0  0  0  0  0  0  0  0999 V2000
    5.2542   -2.5667    0.0000 N   0  0  0  0  0  0  0  0  0  0  0  0
    5.9667   -3.8000    0.0000 N   0  0  0  0  0  0  0  0  0  0  0  0
    5.2542   -3.3917    0.0000 C   0  0  0  0  0  0  0  0  0  0  0  0
    5.9667   -2.1417    0.0000 C   0  0  0  0  0  0  0  0  0  0  0  0
    6.6792   -3.3917    0.0000 C   0  0  0  0  0  0  0  0  0  0  0  0
    6.6792   -2.5625    0.0000 C   0  0  0  0  0  0  0  0  0  0  0  0
    7.3917   -2.1417    0.0000 N   0  0  0  0  0  0  0  0  0  0  0  0
    7.4000   -3.8000    0.0000 N   0  0  0  0  0  0  0  0  0  0  0  0
    4.5417   -3.8042    0.0000 N   0  0  0  0  0  0  0  0  0  0  0  0
    5.9667   -1.3167    0.0000 N   0  0  0  0  0  0  0  0  0  0  0  0
    4.5417   -4.6292    0.0000 C   0  0  0  0  0  0  0  0  0  0  0  0
    3.8292   -5.8667    0.0000 C   0  0  0  0  0  0  0  0  0  0  0  0
    8.1125   -2.5542    0.0000 C   0  0  0  0  0  0  0  0  0  0  0  0
    8.1167   -3.3875    0.0000 C   0  0  0  0  0  0  0  0  0  0  0  0
    4.5375    0.3250    0.0000 O   0  0  0  0  0  0  0  0  0  0  0  0
    5.2542   -0.9042    0.0000 C   0  0  0  0  0  0  0  0  0  0  0  0
    3.8292   -5.0417    0.0000 C   0  0  0  0  0  0  0  0  0  0  0  0
    5.2542   -0.0875    0.0000 C   0  0  0  0  0  0  0  0  0  0  0  0
    3.1125   -6.2792    0.0000 C   0  0  0  0  0  0  0  0  0  0  0  0
    4.5417   -6.2750    0.0000 C   0  0  0  0  0  0  0  0  0  0  0  0
    4.5375    1.1500    0.0000 C   0  0  0  0  0  0  0  0  0  0  0  0
    3.1125   -7.1000    0.0000 C   0  0  0  0  0  0  0  0  0  0  0  0
    4.5417   -7.1042    0.0000 C   0  0  0  0  0  0  0  0  0  0  0  0
    3.8250   -7.5167    0.0000 C   0  0  0  0  0  0  0  0  0  0  0  0
  2  3  1  0  0  0  0
  3  1  2  0  0  0  0
  4  1  1  0  0  0  0
  5  6  1  0  0  0  0
  6  4  2  0  0  0  0
  7  6  1  0  0  0  0
  8  5  1  0  0  0  0
  9  3  1  0  0  0  0
 10  4  1  0  0  0  0
 11  9  1  0  0  0  0
 12 17  1  0  0  0  0
 13  7  2  0  0  0  0
 14 13  1  0  0  0  0
 15 18  1  0  0  0  0
 16 10  1  0  0  0  0
 17 11  1  0  0  0  0
 18 16  1  0  0  0  0
 19 12  2  0  0  0  0
 20 12  1  0  0  0  0
 21 15  1  0  0  0  0
 22 19  1  0  0  0  0
 23 20  2  0  0  0  0
 24 23  1  0  0  0  0
  2  5  2  0  0  0  0
 14  8  2  0  0  0  0
 22 24  2  0  0  0  0
M  END
>  <Code> (P7008530)
P7008530

>  <Number of H-Donors> (P7008530)
2

>  <Number of H-Acceptors> (P7008530)
7

>  <Number of Rotatable bonds> (P7008530)
8

>  <CLogP> (P7008530)
1.700000000000000e+000

>  <Number of Rings> (P7008530)
3

>  <PSA> (P7008530)
8.490000000000002e+001

$$$$

  -ISIS-  11102212342D

 29 32  0  0  0  0  0  0  0  0999 V2000
    5.9667   -3.5292    0.0000 N   0  0  0  0  0  0  0  0  0  0  0  0
    5.9667   -4.3542    0.0000 C   0  0  0  0  0  0  0  0  0  0  0  0
    6.6792   -4.7625    0.0000 N   0  0  0  0  0  0  0  0  0  0  0  0
    6.6792   -3.1042    0.0000 C   0  0  0  0  0  0  0  0  0  0  0  0
    7.3917   -4.3542    0.0000 C   0  0  0  0  0  0  0  0  0  0  0  0
    7.3917   -3.5250    0.0000 C   0  0  0  0  0  0  0  0  0  0  0  0
    5.2542   -4.7667    0.0000 N   0  0  0  0  0  0  0  0  0  0  0  0
    6.6792   -2.2792    0.0000 N   0  0  0  0  0  0  0  0  0  0  0  0
    4.5375   -6.0042    0.0000 C   0  0  0  0  0  0  0  0  0  0  0  0
    4.5375   -6.8250    0.0000 C   0  0  0  0  0  0  0  0  0  0  0  0
    8.1042   -3.1042    0.0000 N   0  0  0  0  0  0  0  0  0  0  0  0
    8.1125   -4.7625    0.0000 N   0  0  0  0  0  0  0  0  0  0  0  0
    5.2542   -5.5917    0.0000 C   0  0  0  0  0  0  0  0  0  0  0  0
    5.2500   -7.2417    0.0000 C   0  0  0  0  0  0  0  0  0  0  0  0
    5.9667   -6.8292    0.0000 C   0  0  0  0  0  0  0  0  0  0  0  0
    5.9667   -1.8667    0.0000 C   0  0  0  0  0  0  0  0  0  0  0  0
    5.9667   -6.0000    0.0000 C   0  0  0  0  0  0  0  0  0  0  0  0
    3.8167   -7.2375    0.0000 O   0  0  0  0  0  0  0  0  0  0  0  0
    5.2500   -8.0667    0.0000 O   0  0  0  0  0  0  0  0  0  0  0  0
    5.9667   -1.0417    0.0000 C   0  0  0  0  0  0  0  0  0  0  0  0
    8.8250   -3.5167    0.0000 C   0  0  0  0  0  0  0  0  0  0  0  0
    8.8292   -4.3500    0.0000 C   0  0  0  0  0  0  0  0  0  0  0  0
    3.8167   -8.0625    0.0000 C   0  0  0  0  0  0  0  0  0  0  0  0
    5.9667   -8.4792    0.0000 C   0  0  0  0  0  0  0  0  0  0  0  0
    5.2500   -0.6292    0.0000 C   0  0  0  0  0  0  0  0  0  0  0  0
    6.6792   -0.6292    0.0000 C   0  0  0  0  0  0  0  0  0  0  0  0
    5.2542    0.1875    0.0000 C   0  0  0  0  0  0  0  0  0  0  0  0
    6.6792    0.1875    0.0000 C   0  0  0  0  0  0  0  0  0  0  0  0
    5.9667    0.6000    0.0000 C   0  0  0  0  0  0  0  0  0  0  0  0
  2  1  2  0  0  0  0
  3  2  1  0  0  0  0
  4  1  1  0  0  0  0
  5  6  1  0  0  0  0
  6  4  2  0  0  0  0
  7  2  1  0  0  0  0
  8  4  1  0  0  0  0
  9 13  2  0  0  0  0
 10  9  1  0  0  0  0
 11  6  1  0  0  0  0
 12  5  1  0  0  0  0
 13  7  1  0  0  0  0
 14 15  1  0  0  0  0
 15 17  2  0  0  0  0
 16  8  1  0  0  0  0
 17 13  1  0  0  0  0
 18 10  1  0  0  0  0
 19 14  1  0  0  0  0
 20 16  1  0  0  0  0
 21 11  2  0  0  0  0
 22 21  1  0  0  0  0
 23 18  1  0  0  0  0
 24 19  1  0  0  0  0
 25 20  1  0  0  0  0
 26 20  2  0  0  0  0
 27 25  2  0  0  0  0
 28 26  1  0  0  0  0
 29 28  2  0  0  0  0
  3  5  2  0  0  0  0
 12 22  2  0  0  0  0
 10 14  2  0  0  0  0
 29 27  1  0  0  0  0
M  END
>  <Code> (P7008528)
P7008528

>  <Number of H-Donors> (P7008528)
2

>  <Number of H-Acceptors> (P7008528)
8

>  <Number of Rotatable bonds> (P7008528)
7

>  <CLogP> (P7008528)
3.000000000000000e+000

>  <Number of Rings> (P7008528)
4

>  <PSA> (P7008528)
9.410000000000002e+001

$$$$

  -ISIS-  11102212342D

 31 34  0  0  0  0  0  0  0  0999 V2000
    5.9667   -3.5292    0.0000 N   0  0  0  0  0  0  0  0  0  0  0  0
    5.9667   -4.3542    0.0000 C   0  0  0  0  0  0  0  0  0  0  0  0
    6.6792   -4.7625    0.0000 N   0  0  0  0  0  0  0  0  0  0  0  0
    6.6792   -3.1042    0.0000 C   0  0  0  0  0  0  0  0  0  0  0  0
    7.3917   -4.3542    0.0000 C   0  0  0  0  0  0  0  0  0  0  0  0
    7.3917   -3.5250    0.0000 C   0  0  0  0  0  0  0  0  0  0  0  0
    5.2500   -7.2417    0.0000 C   0  0  0  0  0  0  0  0  0  0  0  0
    5.9667   -6.8292    0.0000 C   0  0  0  0  0  0  0  0  0  0  0  0
    4.5375   -6.8250    0.0000 C   0  0  0  0  0  0  0  0  0  0  0  0
    5.2542   -5.5917    0.0000 C   0  0  0  0  0  0  0  0  0  0  0  0
    5.2542   -4.7667    0.0000 N   0  0  0  0  0  0  0  0  0  0  0  0
    4.5375   -6.0042    0.0000 C   0  0  0  0  0  0  0  0  0  0  0  0
    5.9667   -6.0000    0.0000 C   0  0  0  0  0  0  0  0  0  0  0  0
    6.6792   -2.2792    0.0000 N   0  0  0  0  0  0  0  0  0  0  0  0
    8.1042   -3.1042    0.0000 N   0  0  0  0  0  0  0  0  0  0  0  0
    8.1125   -4.7625    0.0000 N   0  0  0  0  0  0  0  0  0  0  0  0
    5.9667   -1.8667    0.0000 C   0  0  0  0  0  0  0  0  0  0  0  0
    5.2500   -8.0667    0.0000 O   0  0  0  0  0  0  0  0  0  0  0  0
    3.8167   -7.2375    0.0000 O   0  0  0  0  0  0  0  0  0  0  0  0
    6.6792   -7.2375    0.0000 O   0  0  0  0  0  0  0  0  0  0  0  0
    5.9667   -1.0417    0.0000 C   0  0  0  0  0  0  0  0  0  0  0  0
    8.8250   -3.5167    0.0000 C   0  0  0  0  0  0  0  0  0  0  0  0
    8.8292   -4.3500    0.0000 C   0  0  0  0  0  0  0  0  0  0  0  0
    5.9667   -8.4792    0.0000 C   0  0  0  0  0  0  0  0  0  0  0  0
    3.8167   -8.0625    0.0000 C   0  0  0  0  0  0  0  0  0  0  0  0
    7.3917   -6.8292    0.0000 C   0  0  0  0  0  0  0  0  0  0  0  0
    5.2500   -0.6292    0.0000 C   0  0  0  0  0  0  0  0  0  0  0  0
    6.6792   -0.6292    0.0000 C   0  0  0  0  0  0  0  0  0  0  0  0
    5.2542    0.1875    0.0000 C   0  0  0  0  0  0  0  0  0  0  0  0
    6.6792    0.1875    0.0000 C   0  0  0  0  0  0  0  0  0  0  0  0
    5.9667    0.6000    0.0000 C   0  0  0  0  0  0  0  0  0  0  0  0
  2  1  2  0  0  0  0
  3  2  1  0  0  0  0
  4  1  1  0  0  0  0
  5  6  1  0  0  0  0
  6  4  2  0  0  0  0
  7  8  1  0  0  0  0
  8 13  2  0  0  0  0
  9 12  1  0  0  0  0
 10 11  1  0  0  0  0
 11  2  1  0  0  0  0
 12 10  2  0  0  0  0
 13 10  1  0  0  0  0
 14  4  1  0  0  0  0
 15  6  1  0  0  0  0
 16  5  1  0  0  0  0
 17 14  1  0  0  0  0
 18  7  1  0  0  0  0
 19  9  1  0  0  0  0
 20  8  1  0  0  0  0
 21 17  1  0  0  0  0
 22 15  2  0  0  0  0
 23 22  1  0  0  0  0
 24 18  1  0  0  0  0
 25 19  1  0  0  0  0
 26 20  1  0  0  0  0
 27 21  1  0  0  0  0
 28 21  2  0  0  0  0
 29 27  2  0  0  0  0
 30 28  1  0  0  0  0
 31 30  2  0  0  0  0
  3  5  2  0  0  0  0
 16 23  2  0  0  0  0
  9  7  2  0  0  0  0
 31 29  1  0  0  0  0
M  END
>  <Code> (P7008527)
P7008527

>  <Number of H-Donors> (P7008527)
2

>  <Number of H-Acceptors> (P7008527)
9

>  <Number of Rotatable bonds> (P7008527)
8

>  <CLogP> (P7008527)
3.000000000000000e+000

>  <Number of Rings> (P7008527)
4

>  <PSA> (P7008527)
1.033000000000000e+002

$$$$

  -ISIS-  11102212342D

 31 35  0  0  0  0  0  0  0  0999 V2000
    5.9667   -4.3542    0.0000 C   0  0  0  0  0  0  0  0  0  0  0  0
    5.9667   -3.5292    0.0000 N   0  0  0  0  0  0  0  0  0  0  0  0
    6.6792   -4.7667    0.0000 N   0  0  0  0  0  0  0  0  0  0  0  0
    6.6792   -3.1125    0.0000 C   0  0  0  0  0  0  0  0  0  0  0  0
    7.3917   -4.3542    0.0000 C   0  0  0  0  0  0  0  0  0  0  0  0
    7.3917   -3.5292    0.0000 C   0  0  0  0  0  0  0  0  0  0  0  0
    5.2542   -4.7667    0.0000 N   0  0  3  0  0  0  0  0  0  0  0  0
    6.6875   -2.2792    0.0000 N   0  0  0  0  0  0  0  0  0  0  0  0
    3.8292   -5.6000    0.0000 N   0  0  3  0  0  0  0  0  0  0  0  0
    8.1125   -3.1042    0.0000 N   0  0  0  0  0  0  0  0  0  0  0  0
    8.1167   -4.7667    0.0000 N   0  0  0  0  0  0  0  0  0  0  0  0
    5.2542   -5.5917    0.0000 C   0  0  0  0  0  0  0  0  0  0  0  0
    4.5375   -4.3625    0.0000 C   0  0  0  0  0  0  0  0  0  0  0  0
    3.1125   -6.0125    0.0000 C   0  0  0  0  0  0  0  0  0  0  0  0
    4.5375   -6.0042    0.0000 C   0  0  0  0  0  0  0  0  0  0  0  0
    3.8250   -4.7750    0.0000 C   0  0  0  0  0  0  0  0  0  0  0  0
    5.9667   -1.8667    0.0000 C   0  0  0  0  0  0  0  0  0  0  0  0
    3.1125   -6.8375    0.0000 C   0  0  0  0  0  0  0  0  0  0  0  0
    5.9667   -1.0417    0.0000 C   0  0  0  0  0  0  0  0  0  0  0  0
    8.8292   -3.5167    0.0000 C   0  0  0  0  0  0  0  0  0  0  0  0
    8.8292   -4.3542    0.0000 C   0  0  0  0  0  0  0  0  0  0  0  0
    2.4000   -7.2500    0.0000 C   0  0  0  0  0  0  0  0  0  0  0  0
    3.8292   -7.2417    0.0000 C   0  0  0  0  0  0  0  0  0  0  0  0
    6.6875   -0.6375    0.0000 C   0  0  0  0  0  0  0  0  0  0  0  0
    5.2542   -0.6375    0.0000 C   0  0  0  0  0  0  0  0  0  0  0  0
    6.6875    0.1875    0.0000 C   0  0  0  0  0  0  0  0  0  0  0  0
    2.4000   -8.0750    0.0000 C   0  0  0  0  0  0  0  0  0  0  0  0
    3.8292   -8.0667    0.0000 C   0  0  0  0  0  0  0  0  0  0  0  0
    5.2542    0.1875    0.0000 C   0  0  0  0  0  0  0  0  0  0  0  0
    5.9750    0.6000    0.0000 C   0  0  0  0  0  0  0  0  0  0  0  0
    3.1167   -8.4875    0.0000 C   0  0  0  0  0  0  0  0  0  0  0  0
  2  1  2  0  0  0  0
  3  1  1  0  0  0  0
  4  2  1  0  0  0  0
  5  3  2  0  0  0  0
  6  5  1  0  0  0  0
  7  1  1  0  0  0  0
  8  4  1  0  0  0  0
  9 16  1  0  0  0  0
 10  6  1  0  0  0  0
 11  5  1  0  0  0  0
 12  7  1  0  0  0  0
 13  7  1  0  0  0  0
 14  9  1  0  0  0  0
 15 12  1  0  0  0  0
 16 13  1  0  0  0  0
 17  8  1  0  0  0  0
 18 14  1  0  0  0  0
 19 17  1  0  0  0  0
 20 21  1  0  0  0  0
 21 11  2  0  0  0  0
 22 18  2  0  0  0  0
 23 18  1  0  0  0  0
 24 19  2  0  0  0  0
 25 19  1  0  0  0  0
 26 24  1  0  0  0  0
 27 22  1  0  0  0  0
 28 23  2  0  0  0  0
 29 25  2  0  0  0  0
 30 29  1  0  0  0  0
 31 28  1  0  0  0  0
 15  9  1  0  0  0  0
  4  6  2  0  0  0  0
 20 10  2  0  0  0  0
 26 30  2  0  0  0  0
 27 31  2  0  0  0  0
M  END
>  <Code> (P7008526)
P7008526

>  <Number of H-Donors> (P7008526)
1

>  <Number of H-Acceptors> (P7008526)
7

>  <Number of Rotatable bonds> (P7008526)
6

>  <CLogP> (P7008526)
3.200000000000000e+000

>  <Number of Rings> (P7008526)
5

>  <PSA> (P7008526)
7.009999999999999e+001

$$$$

  -ISIS-  11102212342D

 29 32  0  0  0  0  0  0  0  0999 V2000
    5.9417   -1.1042    0.0000 C   0  0  0  0  0  0  0  0  0  0  0  0
    5.2292   -1.5292    0.0000 N   0  0  0  0  0  0  0  0  0  0  0  0
    5.2292   -2.3500    0.0000 C   0  0  0  0  0  0  0  0  0  0  0  0
    5.9417   -2.7542    0.0000 N   0  0  0  0  0  0  0  0  0  0  0  0
    6.6542   -1.5167    0.0000 C   0  0  0  0  0  0  0  0  0  0  0  0
    6.6542   -2.3500    0.0000 C   0  0  0  0  0  0  0  0  0  0  0  0
    5.9417   -0.2792    0.0000 N   0  0  3  0  0  0  0  0  0  0  0  0
    4.5125   -5.2292    0.0000 C   0  0  0  0  0  0  0  0  0  0  0  0
    5.2292   -4.8167    0.0000 C   0  0  0  0  0  0  0  0  0  0  0  0
    3.8000   -4.8167    0.0000 C   0  0  0  0  0  0  0  0  0  0  0  0
    4.5167   -3.5792    0.0000 C   0  0  0  0  0  0  0  0  0  0  0  0
    4.5167   -2.7542    0.0000 N   0  0  0  0  0  0  0  0  0  0  0  0
    3.8000   -3.9917    0.0000 C   0  0  0  0  0  0  0  0  0  0  0  0
    5.2292   -3.9917    0.0000 C   0  0  0  0  0  0  0  0  0  0  0  0
    7.3667   -1.1042    0.0000 N   0  0  0  0  0  0  0  0  0  0  0  0
    7.3667   -2.7542    0.0000 N   0  0  0  0  0  0  0  0  0  0  0  0
    5.9417    1.3708    0.0000 O   0  0  0  0  0  0  0  0  0  0  0  0
    4.5125   -6.0500    0.0000 O   0  0  0  0  0  0  0  0  0  0  0  0
    3.0875   -5.2250    0.0000 O   0  0  0  0  0  0  0  0  0  0  0  0
    5.9375   -5.2292    0.0000 O   0  0  0  0  0  0  0  0  0  0  0  0
    5.2292    0.1333    0.0000 C   0  0  0  0  0  0  0  0  0  0  0  0
    6.6625    0.1333    0.0000 C   0  0  0  0  0  0  0  0  0  0  0  0
    8.0792   -1.5167    0.0000 C   0  0  0  0  0  0  0  0  0  0  0  0
    8.0792   -2.3417    0.0000 C   0  0  0  0  0  0  0  0  0  0  0  0
    6.6542    0.9583    0.0000 C   0  0  0  0  0  0  0  0  0  0  0  0
    5.2292    0.9583    0.0000 C   0  0  0  0  0  0  0  0  0  0  0  0
    5.2167   -6.4625    0.0000 C   0  0  0  0  0  0  0  0  0  0  0  0
    3.0875   -6.0417    0.0000 C   0  0  0  0  0  0  0  0  0  0  0  0
    6.6542   -4.8250    0.0000 C   0  0  0  0  0  0  0  0  0  0  0  0
  2  1  1  0  0  0  0
  3  2  2  0  0  0  0
  4  6  2  0  0  0  0
  5  1  2  0  0  0  0
  6  5  1  0  0  0  0
  7  1  1  0  0  0  0
  8  9  1  0  0  0  0
  9 14  2  0  0  0  0
 10 13  1  0  0  0  0
 11 12  1  0  0  0  0
 12  3  1  0  0  0  0
 13 11  2  0  0  0  0
 14 11  1  0  0  0  0
 15  5  1  0  0  0  0
 16  6  1  0  0  0  0
 17 25  1  0  0  0  0
 18  8  1  0  0  0  0
 19 10  1  0  0  0  0
 20  9  1  0  0  0  0
 21  7  1  0  0  0  0
 22  7  1  0  0  0  0
 23 15  2  0  0  0  0
 24 23  1  0  0  0  0
 25 22  1  0  0  0  0
 26 21  1  0  0  0  0
 27 18  1  0  0  0  0
 28 19  1  0  0  0  0
 29 20  1  0  0  0  0
 26 17  1  0  0  0  0
  3  4  1  0  0  0  0
 16 24  2  0  0  0  0
 10  8  2  0  0  0  0
M  END
>  <Code> (P7008523)
P7008523

>  <Number of H-Donors> (P7008523)
1

>  <Number of H-Acceptors> (P7008523)
10

>  <Number of Rotatable bonds> (P7008523)
6

>  <CLogP> (P7008523)
1.500000000000000e+000

>  <Number of Rings> (P7008523)
4

>  <PSA> (P7008523)
1.038000000000000e+002

$$$$

  -ISIS-  11102212342D

 27 30  0  0  0  0  0  0  0  0999 V2000
    7.9417   -2.3167    0.0000 C   0  0  0  0  0  0  0  0  0  0  0  0
    7.9375   -3.1417    0.0000 C   0  0  0  0  0  0  0  0  0  0  0  0
    7.2292   -1.9042    0.0000 C   0  0  0  0  0  0  0  0  0  0  0  0
    7.2292   -3.5500    0.0000 N   0  0  0  0  0  0  0  0  0  0  0  0
    6.5250   -2.3167    0.0000 N   0  0  0  0  0  0  0  0  0  0  0  0
    6.5250   -3.1417    0.0000 C   0  0  0  0  0  0  0  0  0  0  0  0
    9.3667   -3.1500    0.0000 N   0  0  0  0  0  0  0  0  0  0  0  0
    8.6542   -3.5542    0.0000 N   0  0  3  0  0  0  0  0  0  0  0  0
    9.3750   -2.3250    0.0000 C   0  0  0  0  0  0  0  0  0  0  0  0
    7.2292   -1.0417    0.0000 N   0  0  3  0  0  0  0  0  0  0  0  0
    3.6750   -4.7917    0.0000 C   0  0  0  0  0  0  0  0  0  0  0  0
    5.8042   -3.5542    0.0000 N   0  0  0  0  0  0  0  0  0  0  0  0
    3.6750   -5.6167    0.0000 C   0  0  0  0  0  0  0  0  0  0  0  0
    4.3875   -4.3792    0.0000 C   0  0  0  0  0  0  0  0  0  0  0  0
    4.3917   -6.0250    0.0000 C   0  0  0  0  0  0  0  0  0  0  0  0
    5.1042   -4.7917    0.0000 C   0  0  0  0  0  0  0  0  0  0  0  0
    5.8125   -4.3792    0.0000 C   0  0  0  0  0  0  0  0  0  0  0  0
    5.1042   -5.6125    0.0000 C   0  0  0  0  0  0  0  0  0  0  0  0
    2.9417   -4.3667    0.0000 O   0  0  0  0  0  0  0  0  0  0  0  0
    8.6500   -4.4292    0.0000 C   0  0  0  0  0  0  0  0  0  0  0  0
    2.9625   -6.0250    0.0000 O   0  0  0  0  0  0  0  0  0  0  0  0
    7.9167   -0.5375    0.0000 C   0  0  0  0  0  0  0  0  0  0  0  0
    6.5375   -0.5417    0.0000 C   0  0  0  0  0  0  0  0  0  0  0  0
    2.2042   -4.7917    0.0000 C   0  0  0  0  0  0  0  0  0  0  0  0
    2.9625   -6.8500    0.0000 C   0  0  0  0  0  0  0  0  0  0  0  0
    6.8000    0.2708    0.0000 C   0  0  0  0  0  0  0  0  0  0  0  0
    7.6542    0.2708    0.0000 C   0  0  0  0  0  0  0  0  0  0  0  0
  2  1  1  0  0  0  0
  3  1  2  0  0  0  0
  4  2  2  0  0  0  0
  5  3  1  0  0  0  0
  6  5  2  0  0  0  0
  7  9  2  0  0  0  0
  8  2  1  0  0  0  0
  9  1  1  0  0  0  0
 10  3  1  0  0  0  0
 11 14  1  0  0  0  0
 12  6  1  0  0  0  0
 13 15  1  0  0  0  0
 14 16  2  0  0  0  0
 15 18  2  0  0  0  0
 16 17  1  0  0  0  0
 17 12  1  0  0  0  0
 18 16  1  0  0  0  0
 19 11  1  0  0  0  0
 20  8  1  0  0  0  0
 21 13  1  0  0  0  0
 22 10  1  0  0  0  0
 23 10  1  0  0  0  0
 24 19  1  0  0  0  0
 25 21  1  0  0  0  0
 26 23  1  0  0  0  0
 27 22  1  0  0  0  0
  8  7  1  0  0  0  0
  4  6  1  0  0  0  0
 27 26  1  0  0  0  0
 11 13  2  0  0  0  0
M  END
>  <Code> (P7008447)
P7008447

>  <Number of H-Donors> (P7008447)
1

>  <Number of H-Acceptors> (P7008447)
7

>  <Number of Rotatable bonds> (P7008447)
6

>  <CLogP> (P7008447)
2.700000000000000e+000

>  <Number of Rings> (P7008447)
4

>  <PSA> (P7008447)
7.730000000000001e+001

$$$$

  -ISIS-  11102212342D

 24 27  0  0  0  0  0  0  0  0999 V2000
    5.0500   -5.1375    0.0000 C   0  0  0  0  0  0  0  0  0  0  0  0
    5.0667   -4.3542    0.0000 C   0  0  0  0  0  0  0  0  0  0  0  0
    4.3875   -3.9542    0.0000 C   0  0  0  0  0  0  0  0  0  0  0  0
    4.3875   -5.5292    0.0000 N   0  0  0  0  0  0  0  0  0  0  0  0
    3.7125   -4.3542    0.0000 N   0  0  0  0  0  0  0  0  0  0  0  0
    3.7125   -5.1417    0.0000 C   0  0  0  0  0  0  0  0  0  0  0  0
    6.4167   -5.1792    0.0000 N   0  0  0  0  0  0  0  0  0  0  0  0
    5.7250   -5.5542    0.0000 N   0  0  3  0  0  0  0  0  0  0  0  0
    6.4375   -4.3792    0.0000 C   0  0  0  0  0  0  0  0  0  0  0  0
    4.3875   -3.1375    0.0000 N   0  0  0  0  0  0  0  0  0  0  0  0
    2.9917   -5.5542    0.0000 N   0  0  0  0  0  0  0  0  0  0  0  0
    3.6750   -2.7250    0.0000 C   0  0  0  0  0  0  0  0  0  0  0  0
    2.2417   -1.8917    0.0000 C   0  0  0  0  0  0  0  0  0  0  0  0
    1.5292   -1.4792    0.0000 F   0  0  0  0  0  0  0  0  0  0  0  0
    2.9917   -6.3792    0.0000 C   0  0  3  0  0  0  0  0  0  0  0  0
    5.7042   -6.3417    0.0000 C   0  0  0  0  0  0  0  0  0  0  0  0
    2.9625   -3.1375    0.0000 C   0  0  0  0  0  0  0  0  0  0  0  0
    3.6750   -1.8917    0.0000 C   0  0  0  0  0  0  0  0  0  0  0  0
    2.2417   -2.7167    0.0000 C   0  0  0  0  0  0  0  0  0  0  0  0
    2.9625   -1.4875    0.0000 C   0  0  0  0  0  0  0  0  0  0  0  0
    2.3292   -6.8625    0.0000 C   0  0  0  0  0  0  0  0  0  0  0  0
    3.6667   -6.8625    0.0000 C   0  0  0  0  0  0  0  0  0  0  0  0
    3.4042   -7.6500    0.0000 C   0  0  0  0  0  0  0  0  0  0  0  0
    2.5792   -7.6500    0.0000 C   0  0  0  0  0  0  0  0  0  0  0  0
  2  1  1  0  0  0  0
  3  2  2  0  0  0  0
  4  1  2  0  0  0  0
  5  6  2  0  0  0  0
  6  4  1  0  0  0  0
  7  8  1  0  0  0  0
  8  1  1  0  0  0  0
  9  2  1  0  0  0  0
 10  3  1  0  0  0  0
 11  6  1  0  0  0  0
 12 10  1  0  0  0  0
 13 20  2  0  0  0  0
 14 13  1  0  0  0  0
 15 11  1  0  0  0  0
 16  8  1  0  0  0  0
 17 12  1  0  0  0  0
 18 12  2  0  0  0  0
 19 17  2  0  0  0  0
 20 18  1  0  0  0  0
 21 15  1  0  0  0  0
 22 15  1  0  0  0  0
 23 22  1  0  0  0  0
 24 21  1  0  0  0  0
  7  9  2  0  0  0  0
  5  3  1  0  0  0  0
 24 23  1  0  0  0  0
 19 13  1  0  0  0  0
M  END
>  <Code> (P7008411)
P7008411

>  <Number of H-Donors> (P7008411)
2

>  <Number of H-Acceptors> (P7008411)
5

>  <Number of Rotatable bonds> (P7008411)
4

>  <CLogP> (P7008411)
3.700000000000000e+000

>  <Number of Rings> (P7008411)
4

>  <PSA> (P7008411)
6.770000000000000e+001

$$$$

  -ISIS-  11102212342D

 25 28  0  0  0  0  0  0  0  0999 V2000
    5.0500   -5.1375    0.0000 C   0  0  0  0  0  0  0  0  0  0  0  0
    5.0667   -4.3542    0.0000 C   0  0  0  0  0  0  0  0  0  0  0  0
    4.3875   -3.9542    0.0000 C   0  0  0  0  0  0  0  0  0  0  0  0
    4.3875   -5.5292    0.0000 N   0  0  0  0  0  0  0  0  0  0  0  0
    3.7125   -4.3542    0.0000 N   0  0  0  0  0  0  0  0  0  0  0  0
    3.7125   -5.1417    0.0000 C   0  0  0  0  0  0  0  0  0  0  0  0
    6.4167   -5.1792    0.0000 N   0  0  0  0  0  0  0  0  0  0  0  0
    5.7250   -5.5542    0.0000 N   0  0  3  0  0  0  0  0  0  0  0  0
    6.4375   -4.3792    0.0000 C   0  0  0  0  0  0  0  0  0  0  0  0
    4.3875   -3.1375    0.0000 N   0  0  0  0  0  0  0  0  0  0  0  0
    2.9917   -5.5500    0.0000 N   0  0  0  0  0  0  0  0  0  0  0  0
    3.6750   -2.7250    0.0000 C   0  0  0  0  0  0  0  0  0  0  0  0
    2.2417   -1.8917    0.0000 C   0  0  0  0  0  0  0  0  0  0  0  0
    1.5292   -1.4792    0.0000 F   0  0  0  0  0  0  0  0  0  0  0  0
    2.9917   -6.3750    0.0000 C   0  0  3  0  0  0  0  0  0  0  0  0
    5.7042   -6.3417    0.0000 C   0  0  0  0  0  0  0  0  0  0  0  0
    2.9625   -3.1375    0.0000 C   0  0  0  0  0  0  0  0  0  0  0  0
    3.6750   -1.8917    0.0000 C   0  0  0  0  0  0  0  0  0  0  0  0
    2.2417   -2.7167    0.0000 C   0  0  0  0  0  0  0  0  0  0  0  0
    2.9625   -1.4875    0.0000 C   0  0  0  0  0  0  0  0  0  0  0  0
    2.2792   -6.7792    0.0000 C   0  0  0  0  0  0  0  0  0  0  0  0
    3.7042   -6.7792    0.0000 C   0  0  0  0  0  0  0  0  0  0  0  0
    3.7042   -7.6125    0.0000 C   0  0  0  0  0  0  0  0  0  0  0  0
    2.2750   -7.6042    0.0000 C   0  0  0  0  0  0  0  0  0  0  0  0
    2.9875   -8.0167    0.0000 C   0  0  0  0  0  0  0  0  0  0  0  0
  2  1  1  0  0  0  0
  3  2  2  0  0  0  0
  4  1  2  0  0  0  0
  5  6  2  0  0  0  0
  6  4  1  0  0  0  0
  7  8  1  0  0  0  0
  8  1  1  0  0  0  0
  9  2  1  0  0  0  0
 10  3  1  0  0  0  0
 11  6  1  0  0  0  0
 12 10  1  0  0  0  0
 13 20  2  0  0  0  0
 14 13  1  0  0  0  0
 15 11  1  0  0  0  0
 16  8  1  0  0  0  0
 17 12  1  0  0  0  0
 18 12  2  0  0  0  0
 19 17  2  0  0  0  0
 20 18  1  0  0  0  0
 21 15  1  0  0  0  0
 22 15  1  0  0  0  0
 23 22  1  0  0  0  0
 24 21  1  0  0  0  0
 25 23  1  0  0  0  0
  7  9  2  0  0  0  0
  5  3  1  0  0  0  0
 19 13  1  0  0  0  0
 24 25  1  0  0  0  0
M  END
>  <Code> (P7008407)
P7008407

>  <Number of H-Donors> (P7008407)
2

>  <Number of H-Acceptors> (P7008407)
5

>  <Number of Rotatable bonds> (P7008407)
4

>  <CLogP> (P7008407)
4.100000000000000e+000

>  <Number of Rings> (P7008407)
4

>  <PSA> (P7008407)
6.770000000000000e+001

$$$$

  -ISIS-  11102212342D

 25 28  0  0  0  0  0  0  0  0999 V2000
    4.7542   -4.5917    0.0000 C   0  0  0  0  0  0  0  0  0  0  0  0
    4.7792   -3.8000    0.0000 C   0  0  0  0  0  0  0  0  0  0  0  0
    4.0792   -3.4000    0.0000 C   0  0  0  0  0  0  0  0  0  0  0  0
    4.0792   -4.9917    0.0000 N   0  0  0  0  0  0  0  0  0  0  0  0
    3.4000   -3.8000    0.0000 N   0  0  0  0  0  0  0  0  0  0  0  0
    3.4000   -4.6000    0.0000 C   0  0  0  0  0  0  0  0  0  0  0  0
    6.1417   -4.6375    0.0000 N   0  0  0  0  0  0  0  0  0  0  0  0
    5.4417   -5.0167    0.0000 N   0  0  3  0  0  0  0  0  0  0  0  0
    6.1625   -3.8292    0.0000 C   0  0  0  0  0  0  0  0  0  0  0  0
    4.0792   -2.5667    0.0000 N   0  0  0  0  0  0  0  0  0  0  0  0
    2.6750   -5.0167    0.0000 N   0  0  0  0  0  0  0  0  0  0  0  0
    3.3750   -2.1542    0.0000 C   0  0  0  0  0  0  0  0  0  0  0  0
    1.9542   -1.3250    0.0000 C   0  0  0  0  0  0  0  0  0  0  0  0
    1.2292   -0.9042    0.0000 Cl  0  0  0  0  0  0  0  0  0  0  0  0
    2.6750   -5.8542    0.0000 C   0  0  3  0  0  0  0  0  0  0  0  0
    5.4167   -5.8167    0.0000 C   0  0  0  0  0  0  0  0  0  0  0  0
    2.6625   -2.5667    0.0000 C   0  0  0  0  0  0  0  0  0  0  0  0
    3.3792   -1.3292    0.0000 C   0  0  0  0  0  0  0  0  0  0  0  0
    1.9500   -2.1500    0.0000 C   0  0  0  0  0  0  0  0  0  0  0  0
    2.6750   -0.9167    0.0000 C   0  0  0  0  0  0  0  0  0  0  0  0
    1.9417   -6.2667    0.0000 C   0  0  0  0  0  0  0  0  0  0  0  0
    3.4000   -6.2667    0.0000 C   0  0  0  0  0  0  0  0  0  0  0  0
    3.3917   -7.1042    0.0000 C   0  0  0  0  0  0  0  0  0  0  0  0
    1.9417   -7.1000    0.0000 C   0  0  0  0  0  0  0  0  0  0  0  0
    2.6667   -7.5250    0.0000 C   0  0  0  0  0  0  0  0  0  0  0  0
  2  1  1  0  0  0  0
  3  2  2  0  0  0  0
  4  1  2  0  0  0  0
  5  6  2  0  0  0  0
  6  4  1  0  0  0  0
  7  8  1  0  0  0  0
  8  1  1  0  0  0  0
  9  2  1  0  0  0  0
 10  3  1  0  0  0  0
 11  6  1  0  0  0  0
 12 10  1  0  0  0  0
 13 20  2  0  0  0  0
 14 13  1  0  0  0  0
 15 11  1  0  0  0  0
 16  8  1  0  0  0  0
 17 12  1  0  0  0  0
 18 12  2  0  0  0  0
 19 17  2  0  0  0  0
 20 18  1  0  0  0  0
 21 15  1  0  0  0  0
 22 15  1  0  0  0  0
 23 22  1  0  0  0  0
 24 21  1  0  0  0  0
 25 23  1  0  0  0  0
  7  9  2  0  0  0  0
  5  3  1  0  0  0  0
 19 13  1  0  0  0  0
 24 25  1  0  0  0  0
M  END
>  <Code> (P7008289)
P7008289

>  <Number of H-Donors> (P7008289)
2

>  <Number of H-Acceptors> (P7008289)
5

>  <Number of Rotatable bonds> (P7008289)
4

>  <CLogP> (P7008289)
4.600000000000000e+000

>  <Number of Rings> (P7008289)
4

>  <PSA> (P7008289)
6.770000000000000e+001

$$$$

  -ISIS-  11102212342D

 25 28  0  0  0  0  0  0  0  0999 V2000
    4.1625   -2.5250    0.0000 C   0  0  0  0  0  0  0  0  0  0  0  0
    4.1792   -1.7250    0.0000 C   0  0  0  0  0  0  0  0  0  0  0  0
    3.4875   -1.3292    0.0000 C   0  0  0  0  0  0  0  0  0  0  0  0
    3.4875   -2.9250    0.0000 N   0  0  0  0  0  0  0  0  0  0  0  0
    2.8042   -1.7250    0.0000 N   0  0  0  0  0  0  0  0  0  0  0  0
    2.8042   -2.5250    0.0000 C   0  0  0  0  0  0  0  0  0  0  0  0
    5.5417   -2.5667    0.0000 N   0  0  0  0  0  0  0  0  0  0  0  0
    4.8417   -2.9500    0.0000 N   0  0  3  0  0  0  0  0  0  0  0  0
    5.5667   -1.7625    0.0000 C   0  0  0  0  0  0  0  0  0  0  0  0
    3.4875   -0.5000    0.0000 N   0  0  0  0  0  0  0  0  0  0  0  0
    2.0667   -2.9417    0.0000 N   0  0  0  0  0  0  0  0  0  0  0  0
    2.7792   -0.0875    0.0000 C   0  0  0  0  0  0  0  0  0  0  0  0
    2.7792    0.7375    0.0000 C   0  0  0  0  0  0  0  0  0  0  0  0
    2.0667    1.1500    0.0000 C   0  0  0  0  0  0  0  0  0  0  0  0
    2.0792    1.9875    0.0000 Cl  0  0  0  0  0  0  0  0  0  0  0  0
    2.0667   -3.7792    0.0000 C   0  0  3  0  0  0  0  0  0  0  0  0
    4.8250   -3.7500    0.0000 C   0  0  0  0  0  0  0  0  0  0  0  0
    1.3542   -0.0792    0.0000 C   0  0  0  0  0  0  0  0  0  0  0  0
    2.0667   -0.4917    0.0000 C   0  0  0  0  0  0  0  0  0  0  0  0
    1.3542    0.7458    0.0000 C   0  0  0  0  0  0  0  0  0  0  0  0
    1.3500   -4.1917    0.0000 C   0  0  0  0  0  0  0  0  0  0  0  0
    2.8042   -4.1917    0.0000 C   0  0  0  0  0  0  0  0  0  0  0  0
    2.8000   -5.0375    0.0000 C   0  0  0  0  0  0  0  0  0  0  0  0
    1.3500   -5.0292    0.0000 C   0  0  0  0  0  0  0  0  0  0  0  0
    2.0667   -5.4542    0.0000 C   0  0  0  0  0  0  0  0  0  0  0  0
  2  1  1  0  0  0  0
  3  2  2  0  0  0  0
  4  1  2  0  0  0  0
  5  6  2  0  0  0  0
  6  4  1  0  0  0  0
  7  8  1  0  0  0  0
  8  1  1  0  0  0  0
  9  2  1  0  0  0  0
 10  3  1  0  0  0  0
 11  6  1  0  0  0  0
 12 10  1  0  0  0  0
 13 12  2  0  0  0  0
 14 13  1  0  0  0  0
 15 14  1  0  0  0  0
 16 11  1  0  0  0  0
 17  8  1  0  0  0  0
 18 19  2  0  0  0  0
 19 12  1  0  0  0  0
 20 18  1  0  0  0  0
 21 16  1  0  0  0  0
 22 16  1  0  0  0  0
 23 22  1  0  0  0  0
 24 21  1  0  0  0  0
 25 23  1  0  0  0  0
  7  9  2  0  0  0  0
  5  3  1  0  0  0  0
 24 25  1  0  0  0  0
 14 20  2  0  0  0  0
M  END
>  <Code> (P7008252)
P7008252

>  <Number of H-Donors> (P7008252)
2

>  <Number of H-Acceptors> (P7008252)
5

>  <Number of Rotatable bonds> (P7008252)
4

>  <CLogP> (P7008252)
4.600000000000000e+000

>  <Number of Rings> (P7008252)
4

>  <PSA> (P7008252)
6.770000000000000e+001

$$$$

  -ISIS-  11102212342D

 29 32  0  0  0  0  0  0  0  0999 V2000
    7.9292   -4.8167    0.0000 N   0  0  3  0  0  0  0  0  0  0  0  0
    7.2292   -4.4125    0.0000 C   0  0  0  0  0  0  0  0  0  0  0  0
    8.6167   -4.4167    0.0000 N   0  0  0  0  0  0  0  0  0  0  0  0
    7.2375   -3.6125    0.0000 C   0  0  0  0  0  0  0  0  0  0  0  0
    7.9292   -5.6167    0.0000 C   0  0  0  0  0  0  0  0  0  0  0  0
    8.6167   -3.6167    0.0000 C   0  0  0  0  0  0  0  0  0  0  0  0
    6.5417   -3.2042    0.0000 C   0  0  0  0  0  0  0  0  0  0  0  0
    6.5417   -4.8125    0.0000 N   0  0  0  0  0  0  0  0  0  0  0  0
    5.8167   -1.1292    0.0000 C   0  0  0  0  0  0  0  0  0  0  0  0
    5.8417   -3.6125    0.0000 N   0  0  0  0  0  0  0  0  0  0  0  0
    8.6125   -6.0167    0.0000 C   0  0  0  0  0  0  0  0  0  0  0  0
    6.5417   -2.3750    0.0000 N   0  0  0  0  0  0  0  0  0  0  0  0
    5.8167   -1.9542    0.0000 N   0  0  0  0  0  0  0  0  0  0  0  0
    7.2292   -6.0250    0.0000 C   0  0  0  0  0  0  0  0  0  0  0  0
    5.8417   -4.4167    0.0000 C   0  0  0  0  0  0  0  0  0  0  0  0
    5.1042   -0.7125    0.0000 C   0  0  0  0  0  0  0  0  0  0  0  0
    8.6167   -6.8167    0.0000 C   0  0  0  0  0  0  0  0  0  0  0  0
    6.5417   -0.7125    0.0000 O   0  0  0  0  0  0  0  0  0  0  0  0
    4.3875   -1.1250    0.0000 C   0  0  0  0  0  0  0  0  0  0  0  0
    5.1042    0.1208    0.0000 C   0  0  0  0  0  0  0  0  0  0  0  0
    7.2292   -6.8250    0.0000 C   0  0  0  0  0  0  0  0  0  0  0  0
    7.9250   -7.2125    0.0000 C   0  0  0  0  0  0  0  0  0  0  0  0
    3.6667    0.1208    0.0000 C   0  0  0  0  0  0  0  0  0  0  0  0
    4.3917    0.5333    0.0000 C   0  0  0  0  0  0  0  0  0  0  0  0
    3.6667   -0.7042    0.0000 C   0  0  0  0  0  0  0  0  0  0  0  0
    2.9500    0.5375    0.0000 O   0  0  0  0  0  0  0  0  0  0  0  0
    9.3292   -5.6042    0.0000 C   0  0  0  0  0  0  0  0  0  0  0  0
    7.9292   -8.0417    0.0000 C   0  0  0  0  0  0  0  0  0  0  0  0
    2.9500    1.3708    0.0000 C   0  0  0  0  0  0  0  0  0  0  0  0
  2  1  1  0  0  0  0
  3  1  1  0  0  0  0
  4  2  1  0  0  0  0
  5  1  1  0  0  0  0
  6  3  2  0  0  0  0
  7  4  2  0  0  0  0
  8  2  2  0  0  0  0
  9 13  1  0  0  0  0
 10 15  2  0  0  0  0
 11  5  2  0  0  0  0
 12  7  1  0  0  0  0
 13 12  1  0  0  0  0
 14  5  1  0  0  0  0
 15  8  1  0  0  0  0
 16  9  1  0  0  0  0
 17 11  1  0  0  0  0
 18  9  2  0  0  0  0
 19 16  1  0  0  0  0
 20 16  2  0  0  0  0
 21 14  2  0  0  0  0
 22 21  1  0  0  0  0
 23 24  2  0  0  0  0
 24 20  1  0  0  0  0
 25 19  2  0  0  0  0
 26 23  1  0  0  0  0
 27 11  1  0  0  0  0
 28 22  1  0  0  0  0
 29 26  1  0  0  0  0
  6  4  1  0  0  0  0
 22 17  2  0  0  0  0
  7 10  1  0  0  0  0
 25 23  1  0  0  0  0
M  END
>  <Code> (P7007429)
P7007429

>  <Number of H-Donors> (P7007429)
2

>  <Number of H-Acceptors> (P7007429)
6

>  <Number of Rotatable bonds> (P7007429)
5

>  <CLogP> (P7007429)
4.000000000000000e+000

>  <Number of Rings> (P7007429)
4

>  <PSA> (P7007429)
9.400000000000000e+001

$$$$

  -ISIS-  11102212342D

 31 35  0  0  0  0  0  0  0  0999 V2000
    4.5917   -0.1875    0.0000 C   0  0  0  0  0  0  0  0  0  0  0  0
    4.6792    0.6333    0.0000 C   0  0  0  0  0  0  0  0  0  0  0  0
    5.9000    0.0833    0.0000 N   0  0  3  0  0  0  0  0  0  0  0  0
    5.4875    0.8083    0.0000 N   0  0  3  0  0  0  0  0  0  0  0  0
    5.3417   -0.5292    0.0000 C   0  0  0  0  0  0  0  0  0  0  0  0
    5.2500   -3.0625    0.0000 N   0  0  3  0  0  0  0  0  0  0  0  0
    4.5542   -2.6375    0.0000 C   0  0  0  0  0  0  0  0  0  0  0  0
    4.5792   -1.8292    0.0000 C   0  0  0  0  0  0  0  0  0  0  0  0
    5.9417   -2.6750    0.0000 N   0  0  0  0  0  0  0  0  0  0  0  0
    3.8750   -0.6000    0.0000 N   0  0  0  0  0  0  0  0  0  0  0  0
    3.8792   -1.4250    0.0000 C   0  0  0  0  0  0  0  0  0  0  0  0
    5.9667   -1.8667    0.0000 C   0  0  0  0  0  0  0  0  0  0  0  0
    3.8792   -3.0292    0.0000 N   0  0  0  0  0  0  0  0  0  0  0  0
    5.2292   -3.8667    0.0000 C   0  0  0  0  0  0  0  0  0  0  0  0
    3.1792   -1.8292    0.0000 N   0  0  0  0  0  0  0  0  0  0  0  0
    4.0542    1.1958    0.0000 O   0  0  0  0  0  0  0  0  0  0  0  0
    3.1792   -2.6375    0.0000 C   0  0  0  0  0  0  0  0  0  0  0  0
    5.8292    1.5625    0.0000 C   0  0  0  0  0  0  0  0  0  0  0  0
    5.9167   -4.3042    0.0000 C   0  0  0  0  0  0  0  0  0  0  0  0
    6.7292   -0.0042    0.0000 C   0  0  0  0  0  0  0  0  0  0  0  0
    5.5167   -1.3417    0.0000 C   0  0  0  0  0  0  0  0  0  0  0  0
    5.8917   -5.1042    0.0000 C   0  0  0  0  0  0  0  0  0  0  0  0
    4.5250   -4.2667    0.0000 C   0  0  0  0  0  0  0  0  0  0  0  0
    4.5042   -5.0750    0.0000 C   0  0  0  0  0  0  0  0  0  0  0  0
    6.6542    1.6458    0.0000 C   0  0  0  0  0  0  0  0  0  0  0  0
    5.3375    2.2333    0.0000 C   0  0  0  0  0  0  0  0  0  0  0  0
    5.1875   -5.4875    0.0000 C   0  0  0  0  0  0  0  0  0  0  0  0
    6.5792   -5.5292    0.0000 C   0  0  0  0  0  0  0  0  0  0  0  0
    5.6750    2.9958    0.0000 C   0  0  0  0  0  0  0  0  0  0  0  0
    7.0000    2.4083    0.0000 C   0  0  0  0  0  0  0  0  0  0  0  0
    6.5125    3.0875    0.0000 C   0  0  0  0  0  0  0  0  0  0  0  0
  2  1  1  0  0  0  0
  3  5  1  0  0  0  0
  4  2  1  0  0  0  0
  5  1  2  0  0  0  0
  6  7  1  0  0  0  0
  7  8  1  0  0  0  0
  8 11  2  0  0  0  0
  9 12  2  0  0  0  0
 10  1  1  0  0  0  0
 11 10  1  0  0  0  0
 12  8  1  0  0  0  0
 13 17  1  0  0  0  0
 14  6  1  0  0  0  0
 15 11  1  0  0  0  0
 16  2  2  0  0  0  0
 17 15  2  0  0  0  0
 18  4  1  0  0  0  0
 19 14  2  0  0  0  0
 20  3  1  0  0  0  0
 21  5  1  0  0  0  0
 22 19  1  0  0  0  0
 23 14  1  0  0  0  0
 24 23  2  0  0  0  0
 25 18  2  0  0  0  0
 26 18  1  0  0  0  0
 27 24  1  0  0  0  0
 28 22  1  0  0  0  0
 29 26  2  0  0  0  0
 30 25  1  0  0  0  0
 31 29  1  0  0  0  0
  3  4  1  0  0  0  0
  7 13  2  0  0  0  0
  6  9  1  0  0  0  0
 30 31  2  0  0  0  0
 27 22  2  0  0  0  0
M  END
>  <Code> (P7007352)
P7007352

>  <Number of H-Donors> (P7007352)
1

>  <Number of H-Acceptors> (P7007352)
6

>  <Number of Rotatable bonds> (P7007352)
4

>  <CLogP> (P7007352)
3.200000000000000e+000

>  <Number of Rings> (P7007352)
5

>  <PSA> (P7007352)
7.920000000000000e+001

$$$$

  -ISIS-  11102212342D

 30 34  0  0  0  0  0  0  0  0999 V2000
    8.1542   -4.3000    0.0000 N   0  0  3  0  0  0  0  0  0  0  0  0
    7.4667   -3.0917    0.0000 C   0  0  0  0  0  0  0  0  0  0  0  0
    7.4667   -3.8917    0.0000 C   0  0  0  0  0  0  0  0  0  0  0  0
    8.8417   -3.8917    0.0000 N   0  0  0  0  0  0  0  0  0  0  0  0
    6.7750   -2.6875    0.0000 C   0  0  0  0  0  0  0  0  0  0  0  0
    8.8500   -3.1000    0.0000 C   0  0  0  0  0  0  0  0  0  0  0  0
    6.7792   -1.8625    0.0000 N   0  0  3  0  0  0  0  0  0  0  0  0
    8.1542   -5.0917    0.0000 C   0  0  0  0  0  0  0  0  0  0  0  0
    6.7750   -4.2917    0.0000 N   0  0  0  0  0  0  0  0  0  0  0  0
    6.0792   -3.0917    0.0000 N   0  0  0  0  0  0  0  0  0  0  0  0
    6.7792   -0.1917    0.0000 N   0  0  3  0  0  0  0  0  0  0  0  0
    8.8417   -5.4917    0.0000 C   0  0  0  0  0  0  0  0  0  0  0  0
    6.0792   -3.8917    0.0000 C   0  0  0  0  0  0  0  0  0  0  0  0
    8.8417   -6.2875    0.0000 C   0  0  0  0  0  0  0  0  0  0  0  0
    7.5000   -1.4500    0.0000 C   0  0  0  0  0  0  0  0  0  0  0  0
    6.0625   -1.4500    0.0000 C   0  0  0  0  0  0  0  0  0  0  0  0
    7.4625   -5.4917    0.0000 C   0  0  0  0  0  0  0  0  0  0  0  0
    8.1542   -6.6875    0.0000 C   0  0  0  0  0  0  0  0  0  0  0  0
    7.4625   -6.2917    0.0000 C   0  0  0  0  0  0  0  0  0  0  0  0
    6.7792    0.6333    0.0000 C   0  0  0  0  0  0  0  0  0  0  0  0
    6.0625   -0.6167    0.0000 C   0  0  0  0  0  0  0  0  0  0  0  0
    7.5000   -0.6167    0.0000 C   0  0  0  0  0  0  0  0  0  0  0  0
    6.0667    1.0458    0.0000 C   0  0  0  0  0  0  0  0  0  0  0  0
    9.5667   -6.7042    0.0000 C   0  0  0  0  0  0  0  0  0  0  0  0
    8.1542   -7.5125    0.0000 C   0  0  0  0  0  0  0  0  0  0  0  0
    6.0667    1.8708    0.0000 C   0  0  0  0  0  0  0  0  0  0  0  0
    5.3542    0.6333    0.0000 C   0  0  0  0  0  0  0  0  0  0  0  0
    4.6375    1.0333    0.0000 C   0  0  0  0  0  0  0  0  0  0  0  0
    5.3417    2.2833    0.0000 C   0  0  0  0  0  0  0  0  0  0  0  0
    4.6292    1.8708    0.0000 C   0  0  0  0  0  0  0  0  0  0  0  0
  2  3  1  0  0  0  0
  3  1  1  0  0  0  0
  4  1  1  0  0  0  0
  5  2  2  0  0  0  0
  6  4  2  0  0  0  0
  7  5  1  0  0  0  0
  8  1  1  0  0  0  0
  9  3  2  0  0  0  0
 10 13  2  0  0  0  0
 11 21  1  0  0  0  0
 12  8  2  0  0  0  0
 13  9  1  0  0  0  0
 14 12  1  0  0  0  0
 15  7  1  0  0  0  0
 16  7  1  0  0  0  0
 17  8  1  0  0  0  0
 18 19  1  0  0  0  0
 19 17  2  0  0  0  0
 20 11  1  0  0  0  0
 21 16  1  0  0  0  0
 22 15  1  0  0  0  0
 23 20  1  0  0  0  0
 24 14  1  0  0  0  0
 25 18  1  0  0  0  0
 26 23  2  0  0  0  0
 27 23  1  0  0  0  0
 28 27  2  0  0  0  0
 29 26  1  0  0  0  0
 30 28  1  0  0  0  0
  6  2  1  0  0  0  0
 18 14  2  0  0  0  0
  5 10  1  0  0  0  0
 22 11  1  0  0  0  0
 29 30  2  0  0  0  0
M  END
>  <Code> (P7007247)
P7007247

>  <Number of H-Donors> (P7007247)
0

>  <Number of H-Acceptors> (P7007247)
5

>  <Number of Rotatable bonds> (P7007247)
4

>  <CLogP> (P7007247)
4.900000000000000e+000

>  <Number of Rings> (P7007247)
5

>  <PSA> (P7007247)
5.009999999999999e+001

$$$$

  -ISIS-  11102212342D

 31 34  0  0  0  0  0  0  0  0999 V2000
    7.7792   -4.2875    0.0000 N   0  0  3  0  0  0  0  0  0  0  0  0
    7.0875   -3.8792    0.0000 C   0  0  0  0  0  0  0  0  0  0  0  0
    8.4667   -3.8875    0.0000 N   0  0  0  0  0  0  0  0  0  0  0  0
    7.0917   -3.0875    0.0000 C   0  0  0  0  0  0  0  0  0  0  0  0
    8.4667   -3.0917    0.0000 C   0  0  0  0  0  0  0  0  0  0  0  0
    6.4000   -2.6792    0.0000 C   0  0  0  0  0  0  0  0  0  0  0  0
    7.7792   -5.0792    0.0000 C   0  0  0  0  0  0  0  0  0  0  0  0
    6.4000   -4.2792    0.0000 N   0  0  0  0  0  0  0  0  0  0  0  0
    5.6792   -0.6167    0.0000 C   0  0  0  0  0  0  0  0  0  0  0  0
    5.7042   -3.0875    0.0000 N   0  0  0  0  0  0  0  0  0  0  0  0
    4.9667   -0.2000    0.0000 C   0  0  0  0  0  0  0  0  0  0  0  0
    5.6792   -1.4417    0.0000 N   0  0  0  0  0  0  0  0  0  0  0  0
    6.4000   -1.8542    0.0000 N   0  0  0  0  0  0  0  0  0  0  0  0
    8.4625   -5.4792    0.0000 C   0  0  0  0  0  0  0  0  0  0  0  0
    4.2542   -0.6125    0.0000 C   0  0  0  0  0  0  0  0  0  0  0  0
    3.5375   -0.1917    0.0000 C   0  0  0  0  0  0  0  0  0  0  0  0
    5.7042   -3.8875    0.0000 C   0  0  0  0  0  0  0  0  0  0  0  0
    8.4667   -6.2750    0.0000 C   0  0  0  0  0  0  0  0  0  0  0  0
    3.5375    0.6375    0.0000 C   0  0  0  0  0  0  0  0  0  0  0  0
    7.0792   -5.4792    0.0000 C   0  0  0  0  0  0  0  0  0  0  0  0
    7.7750   -6.6667    0.0000 C   0  0  0  0  0  0  0  0  0  0  0  0
    6.4000   -0.2000    0.0000 O   0  0  0  0  0  0  0  0  0  0  0  0
    4.9750    0.6333    0.0000 C   0  0  0  0  0  0  0  0  0  0  0  0
    7.0875   -6.2792    0.0000 C   0  0  0  0  0  0  0  0  0  0  0  0
    4.2542    1.0458    0.0000 C   0  0  0  0  0  0  0  0  0  0  0  0
    2.8167   -0.6042    0.0000 O   0  0  0  0  0  0  0  0  0  0  0  0
    2.8292    1.0500    0.0000 O   0  0  0  0  0  0  0  0  0  0  0  0
    9.1792   -6.6875    0.0000 C   0  0  0  0  0  0  0  0  0  0  0  0
    7.7792   -7.4917    0.0000 C   0  0  0  0  0  0  0  0  0  0  0  0
    2.8167   -1.4375    0.0000 C   0  0  0  0  0  0  0  0  0  0  0  0
    2.1042    0.6458    0.0000 C   0  0  0  0  0  0  0  0  0  0  0  0
  2  1  1  0  0  0  0
  3  1  1  0  0  0  0
  4  2  1  0  0  0  0
  5  3  2  0  0  0  0
  6  4  2  0  0  0  0
  7  1  1  0  0  0  0
  8  2  2  0  0  0  0
  9 12  1  0  0  0  0
 10 17  2  0  0  0  0
 11  9  1  0  0  0  0
 12 13  1  0  0  0  0
 13  6  1  0  0  0  0
 14  7  2  0  0  0  0
 15 11  1  0  0  0  0
 16 15  2  0  0  0  0
 17  8  1  0  0  0  0
 18 14  1  0  0  0  0
 19 25  2  0  0  0  0
 20  7  1  0  0  0  0
 21 24  1  0  0  0  0
 22  9  2  0  0  0  0
 23 11  2  0  0  0  0
 24 20  2  0  0  0  0
 25 23  1  0  0  0  0
 26 16  1  0  0  0  0
 27 19  1  0  0  0  0
 28 18  1  0  0  0  0
 29 21  1  0  0  0  0
 30 26  1  0  0  0  0
 31 27  1  0  0  0  0
  5  4  1  0  0  0  0
 21 18  2  0  0  0  0
  6 10  1  0  0  0  0
 16 19  1  0  0  0  0
M  END
>  <Code> (P7007237)
P7007237

>  <Number of H-Donors> (P7007237)
2

>  <Number of H-Acceptors> (P7007237)
7

>  <Number of Rotatable bonds> (P7007237)
6

>  <CLogP> (P7007237)
4.000000000000000e+000

>  <Number of Rings> (P7007237)
4

>  <PSA> (P7007237)
1.032000000000000e+002

$$$$

  -ISIS-  11102212342D

 29 32  0  0  0  0  0  0  0  0999 V2000
    7.7167   -4.7667    0.0000 N   0  0  3  0  0  0  0  0  0  0  0  0
    7.0292   -4.3625    0.0000 C   0  0  0  0  0  0  0  0  0  0  0  0
    8.4042   -4.3667    0.0000 N   0  0  0  0  0  0  0  0  0  0  0  0
    7.0292   -3.5667    0.0000 C   0  0  0  0  0  0  0  0  0  0  0  0
    8.4042   -3.5667    0.0000 C   0  0  0  0  0  0  0  0  0  0  0  0
    6.3417   -3.1542    0.0000 C   0  0  0  0  0  0  0  0  0  0  0  0
    7.7167   -5.5625    0.0000 C   0  0  0  0  0  0  0  0  0  0  0  0
    6.3417   -4.7542    0.0000 N   0  0  0  0  0  0  0  0  0  0  0  0
    5.6417   -3.5667    0.0000 N   0  0  0  0  0  0  0  0  0  0  0  0
    6.3417   -2.3292    0.0000 N   0  0  0  0  0  0  0  0  0  0  0  0
    8.4042   -5.9542    0.0000 C   0  0  0  0  0  0  0  0  0  0  0  0
    5.6417   -4.3667    0.0000 C   0  0  0  0  0  0  0  0  0  0  0  0
    5.6250   -1.0917    0.0000 C   0  0  0  0  0  0  0  0  0  0  0  0
    8.4042   -6.7500    0.0000 C   0  0  0  0  0  0  0  0  0  0  0  0
    5.6250   -1.9167    0.0000 N   0  0  0  0  0  0  0  0  0  0  0  0
    7.0250   -5.9625    0.0000 C   0  0  0  0  0  0  0  0  0  0  0  0
    7.7167   -7.1417    0.0000 C   0  0  0  0  0  0  0  0  0  0  0  0
    6.3417   -0.6792    0.0000 O   0  0  0  0  0  0  0  0  0  0  0  0
    7.0292   -6.7542    0.0000 C   0  0  0  0  0  0  0  0  0  0  0  0
    4.9042   -0.6792    0.0000 C   0  0  0  0  0  0  0  0  0  0  0  0
    4.9167    0.1458    0.0000 C   0  0  0  0  0  0  0  0  0  0  0  0
    4.2042    0.5708    0.0000 C   0  0  0  0  0  0  0  0  0  0  0  0
    9.1250   -7.1667    0.0000 C   0  0  0  0  0  0  0  0  0  0  0  0
    7.7167   -7.9667    0.0000 C   0  0  0  0  0  0  0  0  0  0  0  0
    4.2167    1.3958    0.0000 C   0  0  0  0  0  0  0  0  0  0  0  0
    3.4875    0.1583    0.0000 C   0  0  0  0  0  0  0  0  0  0  0  0
    2.7750    0.5750    0.0000 C   0  0  0  0  0  0  0  0  0  0  0  0
    3.5000    1.8208    0.0000 C   0  0  0  0  0  0  0  0  0  0  0  0
    2.7792    1.4083    0.0000 C   0  0  0  0  0  0  0  0  0  0  0  0
  2  1  1  0  0  0  0
  3  1  1  0  0  0  0
  4  2  1  0  0  0  0
  5  3  2  0  0  0  0
  6  4  2  0  0  0  0
  7  1  1  0  0  0  0
  8  2  2  0  0  0  0
  9 12  2  0  0  0  0
 10  6  1  0  0  0  0
 11  7  2  0  0  0  0
 12  8  1  0  0  0  0
 13 15  1  0  0  0  0
 14 11  1  0  0  0  0
 15 10  1  0  0  0  0
 16  7  1  0  0  0  0
 17 19  1  0  0  0  0
 18 13  2  0  0  0  0
 19 16  2  0  0  0  0
 20 13  1  0  0  0  0
 21 20  1  0  0  0  0
 22 21  1  0  0  0  0
 23 14  1  0  0  0  0
 24 17  1  0  0  0  0
 25 22  2  0  0  0  0
 26 22  1  0  0  0  0
 27 26  2  0  0  0  0
 28 25  1  0  0  0  0
 29 27  1  0  0  0  0
  5  4  1  0  0  0  0
 17 14  2  0  0  0  0
  6  9  1  0  0  0  0
 28 29  2  0  0  0  0
M  END
>  <Code> (P7007217)
P7007217

>  <Number of H-Donors> (P7007217)
2

>  <Number of H-Acceptors> (P7007217)
5

>  <Number of Rotatable bonds> (P7007217)
6

>  <CLogP> (P7007217)
4.500000000000000e+000

>  <Number of Rings> (P7007217)
4

>  <PSA> (P7007217)
8.470000000000000e+001

$$$$

  -ISIS-  11102212342D

 26 29  0  0  0  0  0  0  0  0999 V2000
    6.3750   -3.5292    0.0000 N   0  0  3  0  0  0  0  0  0  0  0  0
    5.6667   -3.1042    0.0000 C   0  0  0  0  0  0  0  0  0  0  0  0
    7.0792   -3.1125    0.0000 N   0  0  0  0  0  0  0  0  0  0  0  0
    5.6667   -2.2917    0.0000 C   0  0  0  0  0  0  0  0  0  0  0  0
    7.0792   -2.2917    0.0000 C   0  0  0  0  0  0  0  0  0  0  0  0
    6.3792   -4.3417    0.0000 C   0  0  0  0  0  0  0  0  0  0  0  0
    4.9542   -1.8792    0.0000 C   0  0  0  0  0  0  0  0  0  0  0  0
    4.9542   -3.5250    0.0000 N   0  0  0  0  0  0  0  0  0  0  0  0
    3.0500    2.8375    0.0000 N   0  0  0  0  0  0  0  0  0  0  0  0
    4.2417   -2.2917    0.0000 N   0  0  0  0  0  0  0  0  0  0  0  0
    3.4792    1.5333    0.0000 N   0  0  3  0  0  0  0  0  0  0  0  0
    7.0750   -4.7542    0.0000 C   0  0  0  0  0  0  0  0  0  0  0  0
    2.7875    2.0333    0.0000 C   0  0  0  0  0  0  0  0  0  0  0  0
    4.2417   -3.1125    0.0000 C   0  0  0  0  0  0  0  0  0  0  0  0
    7.0792   -5.5667    0.0000 C   0  0  0  0  0  0  0  0  0  0  0  0
    3.9042    2.8375    0.0000 C   0  0  0  0  0  0  0  0  0  0  0  0
    4.1667    2.0333    0.0000 C   0  0  0  0  0  0  0  0  0  0  0  0
    5.6625   -4.7542    0.0000 C   0  0  0  0  0  0  0  0  0  0  0  0
    6.3750   -5.9792    0.0000 C   0  0  0  0  0  0  0  0  0  0  0  0
    5.6667   -5.5792    0.0000 C   0  0  0  0  0  0  0  0  0  0  0  0
    4.9542   -1.0250    0.0000 N   0  0  0  0  0  0  0  0  0  0  0  0
    3.4792    0.6833    0.0000 C   0  0  0  0  0  0  0  0  0  0  0  0
    4.2167    0.2583    0.0000 C   0  0  0  0  0  0  0  0  0  0  0  0
    7.8167   -5.9917    0.0000 C   0  0  0  0  0  0  0  0  0  0  0  0
    4.2167   -0.6000    0.0000 C   0  0  0  0  0  0  0  0  0  0  0  0
    6.3792   -6.8292    0.0000 C   0  0  0  0  0  0  0  0  0  0  0  0
  2  1  1  0  0  0  0
  3  1  1  0  0  0  0
  4  2  1  0  0  0  0
  5  3  2  0  0  0  0
  6  1  1  0  0  0  0
  7  4  2  0  0  0  0
  8  2  2  0  0  0  0
  9 13  2  0  0  0  0
 10 14  2  0  0  0  0
 11 22  1  0  0  0  0
 12  6  2  0  0  0  0
 13 11  1  0  0  0  0
 14  8  1  0  0  0  0
 15 12  1  0  0  0  0
 16 17  2  0  0  0  0
 17 11  1  0  0  0  0
 18  6  1  0  0  0  0
 19 20  1  0  0  0  0
 20 18  2  0  0  0  0
 21  7  1  0  0  0  0
 22 23  1  0  0  0  0
 23 25  1  0  0  0  0
 24 15  1  0  0  0  0
 25 21  1  0  0  0  0
 26 19  1  0  0  0  0
  5  4  1  0  0  0  0
 19 15  2  0  0  0  0
 10  7  1  0  0  0  0
 16  9  1  0  0  0  0
M  END
>  <Code> (P7007196)
P7007196

>  <Number of H-Donors> (P7007196)
1

>  <Number of H-Acceptors> (P7007196)
5

>  <Number of Rotatable bonds> (P7007196)
6

>  <CLogP> (P7007196)
2.800000000000000e+000

>  <Number of Rings> (P7007196)
4

>  <PSA> (P7007196)
7.350000000000000e+001

$$$$

  -ISIS-  11102212342D

 29 32  0  0  0  0  0  0  0  0999 V2000
    7.7750   -4.3292    0.0000 N   0  0  3  0  0  0  0  0  0  0  0  0
    7.0792   -3.9250    0.0000 C   0  0  0  0  0  0  0  0  0  0  0  0
    8.4667   -3.9292    0.0000 N   0  0  0  0  0  0  0  0  0  0  0  0
    7.0792   -3.1292    0.0000 C   0  0  0  0  0  0  0  0  0  0  0  0
    8.4667   -3.1292    0.0000 C   0  0  0  0  0  0  0  0  0  0  0  0
    6.3917   -2.7167    0.0000 C   0  0  0  0  0  0  0  0  0  0  0  0
    6.3917   -4.3167    0.0000 N   0  0  0  0  0  0  0  0  0  0  0  0
    5.6917   -3.1292    0.0000 N   0  0  0  0  0  0  0  0  0  0  0  0
    7.7750   -5.1292    0.0000 C   0  0  0  0  0  0  0  0  0  0  0  0
    5.6917   -3.9292    0.0000 C   0  0  0  0  0  0  0  0  0  0  0  0
    3.5250   -0.2292    0.0000 C   0  0  0  0  0  0  0  0  0  0  0  0
    3.5250    0.6000    0.0000 C   0  0  0  0  0  0  0  0  0  0  0  0
    4.2417   -0.6417    0.0000 C   0  0  0  0  0  0  0  0  0  0  0  0
    6.3917   -1.8875    0.0000 N   0  0  0  0  0  0  0  0  0  0  0  0
    7.0792   -5.5292    0.0000 C   0  0  0  0  0  0  0  0  0  0  0  0
    8.4625   -5.5292    0.0000 C   0  0  0  0  0  0  0  0  0  0  0  0
    4.2417    1.0125    0.0000 C   0  0  0  0  0  0  0  0  0  0  0  0
    4.9542   -0.2292    0.0000 C   0  0  0  0  0  0  0  0  0  0  0  0
    7.7667   -6.7167    0.0000 C   0  0  0  0  0  0  0  0  0  0  0  0
    8.4667   -6.3250    0.0000 C   0  0  0  0  0  0  0  0  0  0  0  0
    7.0792   -6.3292    0.0000 C   0  0  0  0  0  0  0  0  0  0  0  0
    4.9542    0.6000    0.0000 C   0  0  0  0  0  0  0  0  0  0  0  0
    2.8042   -0.6375    0.0000 O   0  0  0  0  0  0  0  0  0  0  0  0
    7.7750   -7.5500    0.0000 F   0  0  0  0  0  0  0  0  0  0  0  0
    2.8167    1.0208    0.0000 O   0  0  0  0  0  0  0  0  0  0  0  0
    5.6667   -1.4750    0.0000 C   0  0  0  0  0  0  0  0  0  0  0  0
    5.6667   -0.6417    0.0000 C   0  0  0  0  0  0  0  0  0  0  0  0
    2.8042   -1.4667    0.0000 C   0  0  0  0  0  0  0  0  0  0  0  0
    2.0917    0.6083    0.0000 C   0  0  0  0  0  0  0  0  0  0  0  0
  2  1  1  0  0  0  0
  3  1  1  0  0  0  0
  4  2  1  0  0  0  0
  5  3  2  0  0  0  0
  6  4  2  0  0  0  0
  7  2  2  0  0  0  0
  8 10  2  0  0  0  0
  9  1  1  0  0  0  0
 10  7  1  0  0  0  0
 11 13  2  0  0  0  0
 12 17  2  0  0  0  0
 13 18  1  0  0  0  0
 14  6  1  0  0  0  0
 15  9  1  0  0  0  0
 16  9  2  0  0  0  0
 17 22  1  0  0  0  0
 18 27  1  0  0  0  0
 19 20  2  0  0  0  0
 20 16  1  0  0  0  0
 21 15  2  0  0  0  0
 22 18  2  0  0  0  0
 23 11  1  0  0  0  0
 24 19  1  0  0  0  0
 25 12  1  0  0  0  0
 26 14  1  0  0  0  0
 27 26  1  0  0  0  0
 28 23  1  0  0  0  0
 29 25  1  0  0  0  0
  5  4  1  0  0  0  0
 21 19  1  0  0  0  0
  6  8  1  0  0  0  0
 11 12  1  0  0  0  0
M  END
>  <Code> (P7007152)
P7007152

>  <Number of H-Donors> (P7007152)
1

>  <Number of H-Acceptors> (P7007152)
6

>  <Number of Rotatable bonds> (P7007152)
7

>  <CLogP> (P7007152)
4.100000000000000e+000

>  <Number of Rings> (P7007152)
4

>  <PSA> (P7007152)
7.409999999999999e+001

$$$$

  -ISIS-  11102212342D

 26 29  0  0  0  0  0  0  0  0999 V2000
    7.4042   -6.6542    0.0000 N   0  0  3  0  0  0  0  0  0  0  0  0
    6.7042   -6.2500    0.0000 C   0  0  0  0  0  0  0  0  0  0  0  0
    8.0917   -6.2542    0.0000 N   0  0  0  0  0  0  0  0  0  0  0  0
    6.7042   -5.4417    0.0000 C   0  0  0  0  0  0  0  0  0  0  0  0
    8.1000   -5.4500    0.0000 C   0  0  0  0  0  0  0  0  0  0  0  0
    6.0125   -5.0292    0.0000 C   0  0  0  0  0  0  0  0  0  0  0  0
    6.0125   -6.6417    0.0000 N   0  0  0  0  0  0  0  0  0  0  0  0
    5.3167   -5.4417    0.0000 N   0  0  0  0  0  0  0  0  0  0  0  0
    7.4042   -7.4542    0.0000 C   0  0  0  0  0  0  0  0  0  0  0  0
    5.3167   -6.2542    0.0000 C   0  0  0  0  0  0  0  0  0  0  0  0
    6.7042   -7.8625    0.0000 C   0  0  0  0  0  0  0  0  0  0  0  0
    8.0917   -7.8542    0.0000 C   0  0  0  0  0  0  0  0  0  0  0  0
    6.0125   -4.2042    0.0000 N   0  0  0  0  0  0  0  0  0  0  0  0
    7.4000   -9.0542    0.0000 C   0  0  0  0  0  0  0  0  0  0  0  0
    6.7042   -8.6667    0.0000 C   0  0  0  0  0  0  0  0  0  0  0  0
    8.0917   -8.6542    0.0000 C   0  0  0  0  0  0  0  0  0  0  0  0
    7.4042   -9.8875    0.0000 F   0  0  0  0  0  0  0  0  0  0  0  0
    4.5667   -1.7042    0.0000 C   0  0  0  0  0  0  0  0  0  0  0  0
    5.2917   -3.7875    0.0000 C   0  0  0  0  0  0  0  0  0  0  0  0
    4.5667   -2.5417    0.0000 C   0  0  0  0  0  0  0  0  0  0  0  0
    5.3000   -1.2917    0.0000 C   0  0  0  0  0  0  0  0  0  0  0  0
    3.8542   -1.2917    0.0000 C   0  0  0  0  0  0  0  0  0  0  0  0
    5.2917   -2.9542    0.0000 C   0  0  0  0  0  0  0  0  0  0  0  0
    3.8542   -0.4667    0.0000 C   0  0  0  0  0  0  0  0  0  0  0  0
    5.3000   -0.4625    0.0000 C   0  0  0  0  0  0  0  0  0  0  0  0
    4.5792   -0.0417    0.0000 C   0  0  0  0  0  0  0  0  0  0  0  0
  2  1  1  0  0  0  0
  3  1  1  0  0  0  0
  4  2  1  0  0  0  0
  5  3  2  0  0  0  0
  6  4  2  0  0  0  0
  7  2  2  0  0  0  0
  8 10  2  0  0  0  0
  9  1  1  0  0  0  0
 10  7  1  0  0  0  0
 11  9  1  0  0  0  0
 12  9  2  0  0  0  0
 13  6  1  0  0  0  0
 14 16  2  0  0  0  0
 15 11  2  0  0  0  0
 16 12  1  0  0  0  0
 17 14  1  0  0  0  0
 18 20  1  0  0  0  0
 19 13  1  0  0  0  0
 20 23  1  0  0  0  0
 21 18  2  0  0  0  0
 22 18  1  0  0  0  0
 23 19  1  0  0  0  0
 24 22  2  0  0  0  0
 25 21  1  0  0  0  0
 26 24  1  0  0  0  0
  5  4  1  0  0  0  0
 15 14  1  0  0  0  0
  8  6  1  0  0  0  0
 25 26  2  0  0  0  0
M  END
>  <Code> (P7007098)
P7007098

>  <Number of H-Donors> (P7007098)
1

>  <Number of H-Acceptors> (P7007098)
4

>  <Number of Rotatable bonds> (P7007098)
6

>  <CLogP> (P7007098)
4.600000000000000e+000

>  <Number of Rings> (P7007098)
4

>  <PSA> (P7007098)
5.559999999999999e+001

$$$$

  -ISIS-  11102212342D

 25 28  0  0  0  0  0  0  0  0999 V2000
    6.0542   -7.7417    0.0000 N   0  0  3  0  0  0  0  0  0  0  0  0
    5.3417   -7.3292    0.0000 C   0  0  0  0  0  0  0  0  0  0  0  0
    6.7625   -7.3292    0.0000 N   0  0  0  0  0  0  0  0  0  0  0  0
    5.3500   -6.5125    0.0000 C   0  0  0  0  0  0  0  0  0  0  0  0
    6.0542   -8.5542    0.0000 C   0  0  0  0  0  0  0  0  0  0  0  0
    6.7625   -6.5167    0.0000 C   0  0  0  0  0  0  0  0  0  0  0  0
    4.6417   -6.0917    0.0000 C   0  0  0  0  0  0  0  0  0  0  0  0
    4.6417   -7.7375    0.0000 N   0  0  0  0  0  0  0  0  0  0  0  0
    3.9292   -6.5125    0.0000 N   0  0  0  0  0  0  0  0  0  0  0  0
    5.3417   -8.9667    0.0000 C   0  0  0  0  0  0  0  0  0  0  0  0
    4.6417   -5.2417    0.0000 N   0  0  0  0  0  0  0  0  0  0  0  0
    3.9292   -7.3292    0.0000 C   0  0  0  0  0  0  0  0  0  0  0  0
    6.7542   -8.9667    0.0000 C   0  0  0  0  0  0  0  0  0  0  0  0
    6.7625   -9.7792    0.0000 C   0  0  0  0  0  0  0  0  0  0  0  0
    5.3417   -9.7917    0.0000 C   0  0  0  0  0  0  0  0  0  0  0  0
    3.9042   -4.8250    0.0000 C   0  0  0  0  0  0  0  0  0  0  0  0
    6.0500  -10.1875    0.0000 C   0  0  0  0  0  0  0  0  0  0  0  0
    4.6125  -10.2167    0.0000 Cl  0  0  0  0  0  0  0  0  0  0  0  0
    3.9042   -3.9750    0.0000 C   0  0  0  0  0  0  0  0  0  0  0  0
    7.4875   -8.5417    0.0000 C   0  0  0  0  0  0  0  0  0  0  0  0
    4.6417   -3.5542    0.0000 C   0  0  0  0  0  0  0  0  0  0  0  0
    3.1750   -3.5542    0.0000 C   0  0  0  0  0  0  0  0  0  0  0  0
    4.6417   -2.7167    0.0000 C   0  0  0  0  0  0  0  0  0  0  0  0
    3.1792   -2.7042    0.0000 C   0  0  0  0  0  0  0  0  0  0  0  0
    3.9125   -2.2875    0.0000 C   0  0  0  0  0  0  0  0  0  0  0  0
  2  1  1  0  0  0  0
  3  1  1  0  0  0  0
  4  2  1  0  0  0  0
  5  1  1  0  0  0  0
  6  3  2  0  0  0  0
  7  4  2  0  0  0  0
  8  2  2  0  0  0  0
  9 12  2  0  0  0  0
 10  5  1  0  0  0  0
 11  7  1  0  0  0  0
 12  8  1  0  0  0  0
 13  5  2  0  0  0  0
 14 13  1  0  0  0  0
 15 10  2  0  0  0  0
 16 11  1  0  0  0  0
 17 14  2  0  0  0  0
 18 15  1  0  0  0  0
 19 16  1  0  0  0  0
 20 13  1  0  0  0  0
 21 19  2  0  0  0  0
 22 19  1  0  0  0  0
 23 21  1  0  0  0  0
 24 22  2  0  0  0  0
 25 24  1  0  0  0  0
  6  4  1  0  0  0  0
 17 15  1  0  0  0  0
  9  7  1  0  0  0  0
 23 25  2  0  0  0  0
M  END
>  <Code> (P7007046)
P7007046

>  <Number of H-Donors> (P7007046)
1

>  <Number of H-Acceptors> (P7007046)
4

>  <Number of Rotatable bonds> (P7007046)
4

>  <CLogP> (P7007046)
4.800000000000000e+000

>  <Number of Rings> (P7007046)
4

>  <PSA> (P7007046)
5.559999999999999e+001

$$$$

  -ISIS-  11102212342D

 31 35  0  0  0  0  0  0  0  0999 V2000
    7.5042   -5.2667    0.0000 N   0  0  3  0  0  0  0  0  0  0  0  0
    6.7917   -4.8417    0.0000 C   0  0  0  0  0  0  0  0  0  0  0  0
    8.2250   -4.8542    0.0000 N   0  0  0  0  0  0  0  0  0  0  0  0
    6.8000   -4.0167    0.0000 C   0  0  0  0  0  0  0  0  0  0  0  0
    8.2292   -4.0250    0.0000 C   0  0  0  0  0  0  0  0  0  0  0  0
    6.0792   -3.5917    0.0000 C   0  0  0  0  0  0  0  0  0  0  0  0
    7.5125   -6.0917    0.0000 C   0  0  0  0  0  0  0  0  0  0  0  0
    6.0792   -5.2542    0.0000 N   0  0  0  0  0  0  0  0  0  0  0  0
    5.3625   -4.0167    0.0000 N   0  0  0  0  0  0  0  0  0  0  0  0
    4.6417   -0.2792    0.0000 C   0  0  0  0  0  0  0  0  0  0  0  0
    6.0792   -2.7625    0.0000 N   0  0  0  0  0  0  0  0  0  0  0  0
    5.3625   -1.5250    0.0000 C   0  0  0  0  0  0  0  0  0  0  0  0
    8.2292   -6.5042    0.0000 C   0  0  0  0  0  0  0  0  0  0  0  0
    5.3625   -4.8542    0.0000 C   0  0  0  0  0  0  0  0  0  0  0  0
    3.9292    0.1208    0.0000 C   0  0  0  0  0  0  0  0  0  0  0  0
    5.3625   -2.3542    0.0000 N   0  0  0  0  0  0  0  0  0  0  0  0
    4.6417   -1.1042    0.0000 C   0  0  0  0  0  0  0  0  0  0  0  0
    6.0792   -1.1042    0.0000 O   0  0  0  0  0  0  0  0  0  0  0  0
    3.9250    0.9333    0.0000 C   0  0  0  0  0  0  0  0  0  0  0  0
    8.2292   -7.3292    0.0000 C   0  0  0  0  0  0  0  0  0  0  0  0
    8.9542   -7.7417    0.0000 Cl  0  0  0  0  0  0  0  0  0  0  0  0
    6.7917   -6.5042    0.0000 C   0  0  0  0  0  0  0  0  0  0  0  0
    5.3500    0.1250    0.0000 C   0  0  0  0  0  0  0  0  0  0  0  0
    5.3417    0.9458    0.0000 C   0  0  0  0  0  0  0  0  0  0  0  0
    6.7917   -7.3292    0.0000 C   0  0  0  0  0  0  0  0  0  0  0  0
    3.2292   -0.2917    0.0000 C   0  0  0  0  0  0  0  0  0  0  0  0
    4.6292    1.3500    0.0000 C   0  0  0  0  0  0  0  0  0  0  0  0
    7.5042   -7.7417    0.0000 C   0  0  0  0  0  0  0  0  0  0  0  0
    3.2167    1.3333    0.0000 C   0  0  0  0  0  0  0  0  0  0  0  0
    2.5167    0.1000    0.0000 C   0  0  0  0  0  0  0  0  0  0  0  0
    2.5042    0.9208    0.0000 C   0  0  0  0  0  0  0  0  0  0  0  0
  2  1  1  0  0  0  0
  3  1  1  0  0  0  0
  4  2  1  0  0  0  0
  5  3  2  0  0  0  0
  6  4  2  0  0  0  0
  7  1  1  0  0  0  0
  8  2  2  0  0  0  0
  9 14  2  0  0  0  0
 10 17  1  0  0  0  0
 11  6  1  0  0  0  0
 12 16  1  0  0  0  0
 13  7  1  0  0  0  0
 14  8  1  0  0  0  0
 15 10  1  0  0  0  0
 16 11  1  0  0  0  0
 17 12  1  0  0  0  0
 18 12  2  0  0  0  0
 19 15  1  0  0  0  0
 20 13  2  0  0  0  0
 21 20  1  0  0  0  0
 22  7  2  0  0  0  0
 23 10  2  0  0  0  0
 24 23  1  0  0  0  0
 25 22  1  0  0  0  0
 26 15  2  0  0  0  0
 27 24  2  0  0  0  0
 28 25  2  0  0  0  0
 29 19  2  0  0  0  0
 30 26  1  0  0  0  0
 31 30  2  0  0  0  0
  5  4  1  0  0  0  0
 20 28  1  0  0  0  0
  6  9  1  0  0  0  0
 19 27  1  0  0  0  0
 29 31  1  0  0  0  0
M  END
>  <Code> (P7007011)
P7007011

>  <Number of H-Donors> (P7007011)
2

>  <Number of H-Acceptors> (P7007011)
5

>  <Number of Rotatable bonds> (P7007011)
5

>  <CLogP> (P7007011)
4.600000000000000e+000

>  <Number of Rings> (P7007011)
5

>  <PSA> (P7007011)
8.470000000000000e+001

$$$$

  -ISIS-  11102212342D

 29 33  0  0  0  0  0  0  0  0999 V2000
    3.5667   -3.5542    0.0000 N   0  0  3  0  0  0  0  0  0  0  0  0
    2.8792   -2.3625    0.0000 C   0  0  0  0  0  0  0  0  0  0  0  0
    2.8792   -3.1625    0.0000 C   0  0  0  0  0  0  0  0  0  0  0  0
    4.2542   -3.1667    0.0000 N   0  0  0  0  0  0  0  0  0  0  0  0
    2.1917   -1.9542    0.0000 C   0  0  0  0  0  0  0  0  0  0  0  0
    4.2667   -2.3667    0.0000 C   0  0  0  0  0  0  0  0  0  0  0  0
    2.1875   -1.1292    0.0000 N   0  0  3  0  0  0  0  0  0  0  0  0
    3.5625   -4.3542    0.0000 C   0  0  0  0  0  0  0  0  0  0  0  0
    2.1917   -3.5542    0.0000 N   0  0  0  0  0  0  0  0  0  0  0  0
    1.5000   -2.3625    0.0000 N   0  0  0  0  0  0  0  0  0  0  0  0
    2.1875    0.5333    0.0000 N   0  0  3  0  0  0  0  0  0  0  0  0
    4.2542   -4.7542    0.0000 C   0  0  0  0  0  0  0  0  0  0  0  0
    1.4917   -3.1667    0.0000 C   0  0  0  0  0  0  0  0  0  0  0  0
    1.4667   -0.7042    0.0000 C   0  0  0  0  0  0  0  0  0  0  0  0
    2.9042   -0.7042    0.0000 C   0  0  0  0  0  0  0  0  0  0  0  0
    2.1875    1.3583    0.0000 C   0  0  0  0  0  0  0  0  0  0  0  0
    1.4750    0.1208    0.0000 C   0  0  0  0  0  0  0  0  0  0  0  0
    2.9042    0.1208    0.0000 C   0  0  0  0  0  0  0  0  0  0  0  0
    4.2417   -5.5500    0.0000 C   0  0  0  0  0  0  0  0  0  0  0  0
    4.9542   -5.9625    0.0000 Cl  0  0  0  0  0  0  0  0  0  0  0  0
    1.4667    1.7750    0.0000 C   0  0  0  0  0  0  0  0  0  0  0  0
    2.8750   -4.7500    0.0000 C   0  0  0  0  0  0  0  0  0  0  0  0
    2.8667   -5.5375    0.0000 C   0  0  0  0  0  0  0  0  0  0  0  0
    3.5500   -5.9417    0.0000 C   0  0  0  0  0  0  0  0  0  0  0  0
    1.4750    2.6083    0.0000 C   0  0  0  0  0  0  0  0  0  0  0  0
    0.7542    1.3583    0.0000 C   0  0  0  0  0  0  0  0  0  0  0  0
    0.7625    3.0208    0.0000 C   0  0  0  0  0  0  0  0  0  0  0  0
    0.0375    1.7833    0.0000 C   0  0  0  0  0  0  0  0  0  0  0  0
    0.0417    2.6083    0.0000 C   0  0  0  0  0  0  0  0  0  0  0  0
  2  3  2  0  0  0  0
  3  1  1  0  0  0  0
  4  1  1  0  0  0  0
  5  2  1  0  0  0  0
  6  4  2  0  0  0  0
  7  5  1  0  0  0  0
  8  1  1  0  0  0  0
  9  3  1  0  0  0  0
 10 13  1  0  0  0  0
 11 18  1  0  0  0  0
 12  8  1  0  0  0  0
 13  9  2  0  0  0  0
 14  7  1  0  0  0  0
 15  7  1  0  0  0  0
 16 11  1  0  0  0  0
 17 14  1  0  0  0  0
 18 15  1  0  0  0  0
 19 12  2  0  0  0  0
 20 19  1  0  0  0  0
 21 16  1  0  0  0  0
 22  8  2  0  0  0  0
 23 22  1  0  0  0  0
 24 23  2  0  0  0  0
 25 21  2  0  0  0  0
 26 21  1  0  0  0  0
 27 25  1  0  0  0  0
 28 26  2  0  0  0  0
 29 28  1  0  0  0  0
  2  6  1  0  0  0  0
 19 24  1  0  0  0  0
  5 10  2  0  0  0  0
 17 11  1  0  0  0  0
 27 29  2  0  0  0  0
M  END
>  <Code> (P7006979)
P7006979

>  <Number of H-Donors> (P7006979)
0

>  <Number of H-Acceptors> (P7006979)
5

>  <Number of Rotatable bonds> (P7006979)
4

>  <CLogP> (P7006979)
4.000000000000000e+000

>  <Number of Rings> (P7006979)
5

>  <PSA> (P7006979)
5.009999999999999e+001

$$$$

  -ISIS-  11102212342D

 29 33  0  0  0  0  0  0  0  0999 V2000
    4.9167   -3.5667    0.0000 N   0  0  3  0  0  0  0  0  0  0  0  0
    4.2375   -2.3750    0.0000 C   0  0  0  0  0  0  0  0  0  0  0  0
    4.2292   -3.1750    0.0000 C   0  0  0  0  0  0  0  0  0  0  0  0
    5.6167   -3.1792    0.0000 N   0  0  0  0  0  0  0  0  0  0  0  0
    3.5417   -1.9667    0.0000 C   0  0  0  0  0  0  0  0  0  0  0  0
    5.6250   -2.3792    0.0000 C   0  0  0  0  0  0  0  0  0  0  0  0
    3.5500   -1.1417    0.0000 N   0  0  3  0  0  0  0  0  0  0  0  0
    3.5500    0.5208    0.0000 N   0  0  3  0  0  0  0  0  0  0  0  0
    4.9167   -4.3667    0.0000 C   0  0  0  0  0  0  0  0  0  0  0  0
    3.5417   -3.5667    0.0000 N   0  0  0  0  0  0  0  0  0  0  0  0
    2.8542   -2.3750    0.0000 N   0  0  0  0  0  0  0  0  0  0  0  0
    3.5500    1.3500    0.0000 C   0  0  0  0  0  0  0  0  0  0  0  0
    5.6125   -4.7667    0.0000 C   0  0  0  0  0  0  0  0  0  0  0  0
    2.8500   -3.1792    0.0000 C   0  0  0  0  0  0  0  0  0  0  0  0
    2.8292   -0.7292    0.0000 C   0  0  0  0  0  0  0  0  0  0  0  0
    4.2625   -0.7292    0.0000 C   0  0  0  0  0  0  0  0  0  0  0  0
    2.8292    0.1000    0.0000 C   0  0  0  0  0  0  0  0  0  0  0  0
    4.2667    0.1000    0.0000 C   0  0  0  0  0  0  0  0  0  0  0  0
    4.2667    1.7583    0.0000 C   0  0  0  0  0  0  0  0  0  0  0  0
    5.6042   -5.5667    0.0000 C   0  0  0  0  0  0  0  0  0  0  0  0
    4.9875    1.3458    0.0000 F   0  0  0  0  0  0  0  0  0  0  0  0
    6.3167   -5.9792    0.0000 Cl  0  0  0  0  0  0  0  0  0  0  0  0
    4.2292   -4.7625    0.0000 C   0  0  0  0  0  0  0  0  0  0  0  0
    4.2250   -5.5542    0.0000 C   0  0  0  0  0  0  0  0  0  0  0  0
    2.8292    1.7583    0.0000 C   0  0  0  0  0  0  0  0  0  0  0  0
    4.2750    2.5833    0.0000 C   0  0  0  0  0  0  0  0  0  0  0  0
    4.9042   -5.9542    0.0000 C   0  0  0  0  0  0  0  0  0  0  0  0
    2.8375    2.5958    0.0000 C   0  0  0  0  0  0  0  0  0  0  0  0
    3.5542    3.0083    0.0000 C   0  0  0  0  0  0  0  0  0  0  0  0
  2  3  2  0  0  0  0
  3  1  1  0  0  0  0
  4  1  1  0  0  0  0
  5  2  1  0  0  0  0
  6  4  2  0  0  0  0
  7  5  1  0  0  0  0
  8 18  1  0  0  0  0
  9  1  1  0  0  0  0
 10  3  1  0  0  0  0
 11 14  1  0  0  0  0
 12  8  1  0  0  0  0
 13  9  1  0  0  0  0
 14 10  2  0  0  0  0
 15  7  1  0  0  0  0
 16  7  1  0  0  0  0
 17 15  1  0  0  0  0
 18 16  1  0  0  0  0
 19 12  2  0  0  0  0
 20 13  2  0  0  0  0
 21 19  1  0  0  0  0
 22 20  1  0  0  0  0
 23  9  2  0  0  0  0
 24 23  1  0  0  0  0
 25 12  1  0  0  0  0
 26 19  1  0  0  0  0
 27 24  2  0  0  0  0
 28 25  2  0  0  0  0
 29 28  1  0  0  0  0
  2  6  1  0  0  0  0
 20 27  1  0  0  0  0
  5 11  2  0  0  0  0
 17  8  1  0  0  0  0
 26 29  2  0  0  0  0
M  END
>  <Code> (P7006972)
P7006972

>  <Number of H-Donors> (P7006972)
0

>  <Number of H-Acceptors> (P7006972)
5

>  <Number of Rotatable bonds> (P7006972)
3

>  <CLogP> (P7006972)
4.300000000000000e+000

>  <Number of Rings> (P7006972)
5

>  <PSA> (P7006972)
5.009999999999999e+001

$$$$

  -ISIS-  11102212342D

 27 29  0  0  0  0  0  0  0  0999 V2000
   -2.7250    2.4250    0.0000 C   0  0  0  0  0  0  0  0  0  0  0  0
   -3.5500    2.4250    0.0000 N   0  0  0  0  0  0  0  0  0  0  0  0
   -2.2500    3.1083    0.0000 S   0  0  3  0  0  0  0  0  0  0  0  0
   -2.4750    1.6375    0.0000 C   0  0  0  0  0  0  0  0  0  0  0  0
   -3.8125    1.6375    0.0000 C   0  0  0  0  0  0  0  0  0  0  0  0
   -3.1375    1.1583    0.0000 O   0  0  0  0  0  0  0  0  0  0  0  0
   -1.7583    3.7708    0.0000 C   0  0  0  0  0  0  0  0  0  0  0  0
   -1.6875    1.3833    0.0000 S   0  0  0  0  0  0  0  0  0  0  0  0
   -2.9375    3.5458    0.0000 O   0  0  0  0  0  0  0  0  0  0  0  0
   -1.5500    2.6625    0.0000 O   0  0  0  0  0  0  0  0  0  0  0  0
   -4.6000    1.3833    0.0000 C   0  0  0  0  0  0  0  0  0  0  0  0
   -2.1375    0.0125    0.0000 C   0  0  0  0  0  0  0  0  0  0  0  0
   -2.9125    0.2833    0.0000 O   0  0  0  0  0  0  0  0  0  0  0  0
   -2.1000    4.5125    0.0000 C   0  0  0  0  0  0  0  0  0  0  0  0
   -0.9333    3.6875    0.0000 C   0  0  0  0  0  0  0  0  0  0  0  0
   -1.5208    0.5750    0.0000 C   0  0  0  0  0  0  0  0  0  0  0  0
   -4.7833    0.5708    0.0000 C   0  0  0  0  0  0  0  0  0  0  0  0
   -5.2208    1.9333    0.0000 C   0  0  0  0  0  0  0  0  0  0  0  0
   -1.9708   -0.7917    0.0000 N   0  0  0  0  0  0  0  0  0  0  0  0
   -0.7958    5.0875    0.0000 C   0  0  0  0  0  0  0  0  0  0  0  0
   -6.1417    0.8708    0.0000 C   0  0  0  0  0  0  0  0  0  0  0  0
   -1.6083    5.1667    0.0000 C   0  0  0  0  0  0  0  0  0  0  0  0
   -5.9958    1.6708    0.0000 C   0  0  0  0  0  0  0  0  0  0  0  0
   -0.4583    4.3292    0.0000 C   0  0  0  0  0  0  0  0  0  0  0  0
   -5.5583    0.3208    0.0000 C   0  0  0  0  0  0  0  0  0  0  0  0
   -6.9417    0.6125    0.0000 F   0  0  0  0  0  0  0  0  0  0  0  0
   -0.3083    5.7625    0.0000 Cl  0  0  0  0  0  0  0  0  0  0  0  0
  2  1  1  0  0  0  0
  3  1  1  0  0  0  0
  4  1  2  0  0  0  0
  5  2  2  0  0  0  0
  6  4  1  0  0  0  0
  7  3  1  0  0  0  0
  8  4  1  0  0  0  0
  9  3  2  0  0  0  0
 10  3  2  0  0  0  0
 11  5  1  0  0  0  0
 12 16  1  0  0  0  0
 13 12  2  0  0  0  0
 14  7  1  0  0  0  0
 15  7  2  0  0  0  0
 16  8  1  0  0  0  0
 17 11  1  0  0  0  0
 18 11  2  0  0  0  0
 19 12  1  0  0  0  0
 20 24  2  0  0  0  0
 21 23  2  0  0  0  0
 22 14  2  0  0  0  0
 23 18  1  0  0  0  0
 24 15  1  0  0  0  0
 25 17  2  0  0  0  0
 26 21  1  0  0  0  0
 27 20  1  0  0  0  0
  6  5  1  0  0  0  0
 22 20  1  0  0  0  0
 21 25  1  0  0  0  0
M  END
>  <Code> (P6852833)
P6852833

>  <Number of H-Donors> (P6852833)
1

>  <Number of H-Acceptors> (P6852833)
5

>  <Number of Rotatable bonds> (P6852833)
6

>  <CLogP> (P6852833)
3.700000000000000e+000

>  <Number of Rings> (P6852833)
3

>  <PSA> (P6852833)
1.369000000000000e+002

$$$$

  -ISIS-  11102212342D

 18 19  0  0  0  0  0  0  0  0999 V2000
    5.4000   -5.2125    0.0000 N   0  0  0  0  0  0  0  0  0  0  0  0
    5.3500   -6.0375    0.0000 C   0  0  0  0  0  0  0  0  0  0  0  0
    6.1917   -5.0042    0.0000 C   0  0  0  0  0  0  0  0  0  0  0  0
    4.6292   -6.4500    0.0000 C   0  0  0  0  0  0  0  0  0  0  0  0
    6.1167   -6.3375    0.0000 S   0  0  0  0  0  0  0  0  0  0  0  0
    6.6417   -5.7000    0.0000 C   0  0  0  0  0  0  0  0  0  0  0  0
    6.4917   -4.2250    0.0000 C   0  0  0  0  0  0  0  0  0  0  0  0
    3.9125   -6.0375    0.0000 C   0  0  0  0  0  0  0  0  0  0  0  0
    4.6292   -7.2750    0.0000 C   0  0  0  0  0  0  0  0  0  0  0  0
    5.9792   -3.5875    0.0000 O   0  0  0  0  0  0  0  0  0  0  0  0
    3.2000   -6.4500    0.0000 C   0  0  0  0  0  0  0  0  0  0  0  0
    3.9125   -7.6875    0.0000 C   0  0  0  0  0  0  0  0  0  0  0  0
    7.3167   -4.1000    0.0000 O   0  0  0  0  0  0  0  0  0  0  0  0
    3.2000   -7.2750    0.0000 C   0  0  0  0  0  0  0  0  0  0  0  0
    3.9125   -5.2125    0.0000 O   0  0  0  0  0  0  0  0  0  0  0  0
    3.9125   -8.5125    0.0000 Cl  0  0  0  0  0  0  0  0  0  0  0  0
    7.6167   -3.3292    0.0000 C   0  0  0  0  0  0  0  0  0  0  0  0
    8.4375   -3.2125    0.0000 C   0  0  0  0  0  0  0  0  0  0  0  0
  2  1  2  0  0  0  0
  3  1  1  0  0  0  0
  4  2  1  0  0  0  0
  5  2  1  0  0  0  0
  6  3  2  0  0  0  0
  7  3  1  0  0  0  0
  8  4  2  0  0  0  0
  9  4  1  0  0  0  0
 10  7  2  0  0  0  0
 11  8  1  0  0  0  0
 12  9  2  0  0  0  0
 13  7  1  0  0  0  0
 14 12  1  0  0  0  0
 15  8  1  0  0  0  0
 16 12  1  0  0  0  0
 17 13  1  0  0  0  0
 18 17  1  0  0  0  0
  6  5  1  0  0  0  0
 14 11  2  0  0  0  0
M  END
>  <Code> (P6668544)
P6668544

>  <Number of H-Donors> (P6668544)
1

>  <Number of H-Acceptors> (P6668544)
4

>  <Number of Rotatable bonds> (P6668544)
4

>  <CLogP> (P6668544)
3.300000000000000e+000

>  <Number of Rings> (P6668544)
2

>  <PSA> (P6668544)
8.769999999999999e+001

$$$$

  -ISIS-  11102212342D

 20 21  0  0  0  0  0  0  0  0999 V2000
    6.9667   -4.9375    0.0000 C   0  0  0  0  0  0  0  0  0  0  0  0
    6.3542   -5.4917    0.0000 N   0  0  0  0  0  0  0  0  0  0  0  0
    5.6292   -5.0792    0.0000 C   0  0  0  0  0  0  0  0  0  0  0  0
    2.7542   -6.7542    0.0000 C   0  0  3  0  0  0  0  0  0  0  0  0
    5.8042   -4.2750    0.0000 O   0  0  0  0  0  0  0  0  0  0  0  0
    6.6292   -4.1875    0.0000 C   0  0  0  0  0  0  0  0  0  0  0  0
    7.7875   -5.0875    0.0000 C   0  0  0  0  0  0  0  0  0  0  0  0
    3.4792   -6.3292    0.0000 C   0  0  0  0  0  0  0  0  0  0  0  0
    4.9125   -5.4917    0.0000 C   0  0  0  0  0  0  0  0  0  0  0  0
    8.3167   -4.4625    0.0000 O   0  0  0  0  0  0  0  0  0  0  0  0
    4.2000   -6.7417    0.0000 C   0  0  0  0  0  0  0  0  0  0  0  0
    3.4792   -5.4917    0.0000 C   0  0  0  0  0  0  0  0  0  0  0  0
    4.9125   -6.3292    0.0000 C   0  0  0  0  0  0  0  0  0  0  0  0
    4.2000   -5.0792    0.0000 C   0  0  0  0  0  0  0  0  0  0  0  0
    3.1792   -7.4750    0.0000 F   0  0  0  0  0  0  0  0  0  0  0  0
    2.3292   -6.0292    0.0000 F   0  0  0  0  0  0  0  0  0  0  0  0
    2.0417   -7.1792    0.0000 F   0  0  0  0  0  0  0  0  0  0  0  0
    8.0667   -5.8625    0.0000 O   0  0  0  0  0  0  0  0  0  0  0  0
    8.8667   -6.0125    0.0000 C   0  0  0  0  0  0  0  0  0  0  0  0
    9.1417   -6.7917    0.0000 C   0  0  0  0  0  0  0  0  0  0  0  0
  2  1  1  0  0  0  0
  3  2  2  0  0  0  0
  4  8  1  0  0  0  0
  5  6  1  0  0  0  0
  6  1  2  0  0  0  0
  7  1  1  0  0  0  0
  8 12  2  0  0  0  0
  9  3  1  0  0  0  0
 10  7  2  0  0  0  0
 11 13  2  0  0  0  0
 12 14  1  0  0  0  0
 13  9  1  0  0  0  0
 14  9  2  0  0  0  0
 15  4  1  0  0  0  0
 16  4  1  0  0  0  0
 17  4  1  0  0  0  0
 18  7  1  0  0  0  0
 19 18  1  0  0  0  0
 20 19  1  0  0  0  0
  5  3  1  0  0  0  0
  8 11  1  0  0  0  0
M  END
>  <Code> (P6668539)
P6668539

>  <Number of H-Donors> (P6668539)
0

>  <Number of H-Acceptors> (P6668539)
3

>  <Number of Rotatable bonds> (P6668539)
5

>  <CLogP> (P6668539)
3.200000000000000e+000

>  <Number of Rings> (P6668539)
2

>  <PSA> (P6668539)
5.230000000000000e+001

$$$$

  -ISIS-  11102212342D

 18 19  0  0  0  0  0  0  0  0999 V2000
    6.9667   -4.9375    0.0000 C   0  0  0  0  0  0  0  0  0  0  0  0
    6.3542   -5.4917    0.0000 N   0  0  0  0  0  0  0  0  0  0  0  0
    5.6292   -5.0792    0.0000 C   0  0  0  0  0  0  0  0  0  0  0  0
    5.8042   -4.2750    0.0000 O   0  0  0  0  0  0  0  0  0  0  0  0
    6.6292   -4.1875    0.0000 C   0  0  0  0  0  0  0  0  0  0  0  0
    7.7875   -5.0875    0.0000 C   0  0  0  0  0  0  0  0  0  0  0  0
    4.9125   -5.4917    0.0000 C   0  0  0  0  0  0  0  0  0  0  0  0
    4.2000   -6.7417    0.0000 C   0  0  0  0  0  0  0  0  0  0  0  0
    4.9125   -6.3292    0.0000 C   0  0  0  0  0  0  0  0  0  0  0  0
    3.4792   -6.3292    0.0000 C   0  0  0  0  0  0  0  0  0  0  0  0
    8.3167   -4.4625    0.0000 O   0  0  0  0  0  0  0  0  0  0  0  0
    4.2000   -5.0792    0.0000 C   0  0  0  0  0  0  0  0  0  0  0  0
    3.4792   -5.4917    0.0000 C   0  0  0  0  0  0  0  0  0  0  0  0
    4.2000   -7.5667    0.0000 Cl  0  0  0  0  0  0  0  0  0  0  0  0
    8.0667   -5.8625    0.0000 O   0  0  0  0  0  0  0  0  0  0  0  0
    2.7542   -6.7542    0.0000 Cl  0  0  0  0  0  0  0  0  0  0  0  0
    8.8667   -6.0125    0.0000 C   0  0  0  0  0  0  0  0  0  0  0  0
    9.1417   -6.7917    0.0000 C   0  0  0  0  0  0  0  0  0  0  0  0
  2  1  1  0  0  0  0
  3  2  2  0  0  0  0
  4  5  1  0  0  0  0
  5  1  2  0  0  0  0
  6  1  1  0  0  0  0
  7  3  1  0  0  0  0
  8  9  2  0  0  0  0
  9  7  1  0  0  0  0
 10 13  2  0  0  0  0
 11  6  2  0  0  0  0
 12  7  2  0  0  0  0
 13 12  1  0  0  0  0
 14  8  1  0  0  0  0
 15  6  1  0  0  0  0
 16 10  1  0  0  0  0
 17 15  1  0  0  0  0
 18 17  1  0  0  0  0
  4  3  1  0  0  0  0
  8 10  1  0  0  0  0
M  END
>  <Code> (P6668535)
P6668535

>  <Number of H-Donors> (P6668535)
0

>  <Number of H-Acceptors> (P6668535)
3

>  <Number of Rotatable bonds> (P6668535)
4

>  <CLogP> (P6668535)
3.600000000000000e+000

>  <Number of Rings> (P6668535)
2

>  <PSA> (P6668535)
5.230000000000000e+001

$$$$

  -ISIS-  11102212342D

 28 31  0  0  0  0  0  0  0  0999 V2000
   -0.7583    0.2125    0.0000 N   0  0  3  0  0  0  0  0  0  0  0  0
   -0.0458   -1.0250    0.0000 C   0  0  0  0  0  0  0  0  0  0  0  0
   -0.7583   -0.6042    0.0000 C   0  0  0  0  0  0  0  0  0  0  0  0
   -1.4208    0.7000    0.0000 N   0  0  0  0  0  0  0  0  0  0  0  0
   -1.1583    1.4833    0.0000 N   0  0  0  0  0  0  0  0  0  0  0  0
    4.9667   -0.7500    0.0000 N   0  0  0  0  0  0  0  0  0  0  0  0
   -0.3333    1.4833    0.0000 N   0  0  0  0  0  0  0  0  0  0  0  0
    4.3042   -1.9042    0.0000 N   0  0  0  0  0  0  0  0  0  0  0  0
    4.2292   -1.0875    0.0000 C   0  0  0  0  0  0  0  0  0  0  0  0
   -0.0833    0.6958    0.0000 C   0  0  0  0  0  0  0  0  0  0  0  0
    0.6625   -0.6125    0.0000 C   0  0  0  0  0  0  0  0  0  0  0  0
   -1.4833   -1.0125    0.0000 C   0  0  0  0  0  0  0  0  0  0  0  0
    5.5292   -1.3667    0.0000 C   0  0  0  0  0  0  0  0  0  0  0  0
    5.1167   -2.0792    0.0000 C   0  0  0  0  0  0  0  0  0  0  0  0
   -0.0500   -1.8500    0.0000 C   0  0  0  0  0  0  0  0  0  0  0  0
   -1.4875   -1.8417    0.0000 C   0  0  0  0  0  0  0  0  0  0  0  0
    0.6750    0.2083    0.0000 O   0  0  0  0  0  0  0  0  0  0  0  0
   -0.7625   -2.2625    0.0000 C   0  0  0  0  0  0  0  0  0  0  0  0
    1.3750   -1.0375    0.0000 N   0  0  0  0  0  0  0  0  0  0  0  0
    3.5167   -0.6625    0.0000 C   0  0  0  0  0  0  0  0  0  0  0  0
   -2.1875   -0.6000    0.0000 C   0  0  0  0  0  0  0  0  0  0  0  0
    6.3625   -1.3667    0.0000 C   0  0  0  0  0  0  0  0  0  0  0  0
    5.5292   -2.8000    0.0000 C   0  0  0  0  0  0  0  0  0  0  0  0
   -2.2083   -2.2500    0.0000 C   0  0  0  0  0  0  0  0  0  0  0  0
    2.1000   -0.6375    0.0000 C   0  0  0  0  0  0  0  0  0  0  0  0
    2.8042   -1.0625    0.0000 C   0  0  0  0  0  0  0  0  0  0  0  0
    6.7750   -2.0792    0.0000 C   0  0  0  0  0  0  0  0  0  0  0  0
    6.3625   -2.8000    0.0000 C   0  0  0  0  0  0  0  0  0  0  0  0
  2  3  1  0  0  0  0
  3  1  1  0  0  0  0
  4  1  1  0  0  0  0
  5  4  2  0  0  0  0
  6  9  2  0  0  0  0
  7 10  2  0  0  0  0
  8  9  1  0  0  0  0
  9 20  1  0  0  0  0
 10  1  1  0  0  0  0
 11  2  1  0  0  0  0
 12  3  2  0  0  0  0
 13  6  1  0  0  0  0
 14  8  1  0  0  0  0
 15  2  2  0  0  0  0
 16 12  1  0  0  0  0
 17 11  2  0  0  0  0
 18 16  2  0  0  0  0
 19 11  1  0  0  0  0
 20 26  1  0  0  0  0
 21 12  1  0  0  0  0
 22 13  1  0  0  0  0
 23 14  1  0  0  0  0
 24 16  1  0  0  0  0
 25 19  1  0  0  0  0
 26 25  1  0  0  0  0
 27 22  2  0  0  0  0
 28 23  2  0  0  0  0
  7  5  1  0  0  0  0
 15 18  1  0  0  0  0
 13 14  2  0  0  0  0
 28 27  1  0  0  0  0
M  END
>  <Code> (P6668196)
P6668196

>  <Number of H-Donors> (P6668196)
2

>  <Number of H-Acceptors> (P6668196)
5

>  <Number of Rotatable bonds> (P6668196)
6

>  <CLogP> (P6668196)
2.800000000000000e+000

>  <Number of Rings> (P6668196)
4

>  <PSA> (P6668196)
1.014000000000000e+002

$$$$

  -ISIS-  11102212342D

 26 29  0  0  0  0  0  0  0  0999 V2000
    3.1750   -3.3125    0.0000 C   0  0  0  0  0  0  0  0  0  0  0  0
    3.8542   -2.0500    0.0000 N   0  0  3  0  0  0  0  0  0  0  0  0
    3.1750   -1.5792    0.0000 N   0  0  0  0  0  0  0  0  0  0  0  0
    3.4000   -0.7875    0.0000 N   0  0  0  0  0  0  0  0  0  0  0  0
   -0.5000   -2.1792    0.0000 N   0  0  0  0  0  0  0  0  0  0  0  0
    3.8792   -2.8750    0.0000 C   0  0  0  0  0  0  0  0  0  0  0  0
    4.2292   -0.7625    0.0000 N   0  0  0  0  0  0  0  0  0  0  0  0
   -0.4083   -3.0000    0.0000 C   0  0  0  0  0  0  0  0  0  0  0  0
   -1.1625   -3.3375    0.0000 N   0  0  0  0  0  0  0  0  0  0  0  0
    4.5125   -1.5417    0.0000 C   0  0  0  0  0  0  0  0  0  0  0  0
    2.4417   -2.9167    0.0000 C   0  0  0  0  0  0  0  0  0  0  0  0
   -1.3083   -2.0125    0.0000 C   0  0  0  0  0  0  0  0  0  0  0  0
   -1.7208   -2.7250    0.0000 C   0  0  0  0  0  0  0  0  0  0  0  0
    4.6125   -3.2750    0.0000 C   0  0  0  0  0  0  0  0  0  0  0  0
    3.2042   -4.1292    0.0000 C   0  0  0  0  0  0  0  0  0  0  0  0
    0.3167   -3.4000    0.0000 C   0  0  0  0  0  0  0  0  0  0  0  0
    2.4167   -2.0917    0.0000 O   0  0  0  0  0  0  0  0  0  0  0  0
    1.7500   -3.3542    0.0000 N   0  0  0  0  0  0  0  0  0  0  0  0
    3.9250   -4.5292    0.0000 C   0  0  0  0  0  0  0  0  0  0  0  0
    4.6375   -4.1000    0.0000 C   0  0  0  0  0  0  0  0  0  0  0  0
    1.0250   -2.9667    0.0000 C   0  0  0  0  0  0  0  0  0  0  0  0
    3.9250   -5.3542    0.0000 Cl  0  0  0  0  0  0  0  0  0  0  0  0
   -1.7250   -1.2875    0.0000 C   0  0  0  0  0  0  0  0  0  0  0  0
   -2.5458   -2.7250    0.0000 C   0  0  0  0  0  0  0  0  0  0  0  0
   -2.9708   -2.0125    0.0000 C   0  0  0  0  0  0  0  0  0  0  0  0
   -2.5375   -1.2875    0.0000 C   0  0  0  0  0  0  0  0  0  0  0  0
  2  6  1  0  0  0  0
  3  2  1  0  0  0  0
  4  3  2  0  0  0  0
  5  8  2  0  0  0  0
  6  1  2  0  0  0  0
  7 10  2  0  0  0  0
  8 16  1  0  0  0  0
  9  8  1  0  0  0  0
 10  2  1  0  0  0  0
 11  1  1  0  0  0  0
 12  5  1  0  0  0  0
 13  9  1  0  0  0  0
 14  6  1  0  0  0  0
 15  1  1  0  0  0  0
 16 21  1  0  0  0  0
 17 11  2  0  0  0  0
 18 11  1  0  0  0  0
 19 15  2  0  0  0  0
 20 19  1  0  0  0  0
 21 18  1  0  0  0  0
 22 19  1  0  0  0  0
 23 12  1  0  0  0  0
 24 13  1  0  0  0  0
 25 24  2  0  0  0  0
 26 23  2  0  0  0  0
 14 20  2  0  0  0  0
  7  4  1  0  0  0  0
 13 12  2  0  0  0  0
 26 25  1  0  0  0  0
M  END
>  <Code> (P6668104)
P6668104

>  <Number of H-Donors> (P6668104)
2

>  <Number of H-Acceptors> (P6668104)
5

>  <Number of Rotatable bonds> (P6668104)
5

>  <CLogP> (P6668104)
2.100000000000000e+000

>  <Number of Rings> (P6668104)
4

>  <PSA> (P6668104)
1.014000000000000e+002

$$$$

  -ISIS-  11102212342D

 26 30  0  0  0  0  0  0  0  0999 V2000
    1.8417   -2.2792    0.0000 N   0  0  3  0  0  0  0  0  0  0  0  0
    1.0667   -1.2125    0.0000 N   0  0  0  0  0  0  0  0  0  0  0  0
    1.8417   -1.4625    0.0000 C   0  0  0  0  0  0  0  0  0  0  0  0
    0.5875   -1.8667    0.0000 C   0  0  0  0  0  0  0  0  0  0  0  0
    1.0667   -2.5417    0.0000 N   0  0  0  0  0  0  0  0  0  0  0  0
    2.5542   -2.6917    0.0000 C   0  0  0  0  0  0  0  0  0  0  0  0
    2.5667   -3.5292    0.0000 C   0  0  0  0  0  0  0  0  0  0  0  0
    3.2792   -3.9417    0.0000 O   0  0  0  0  0  0  0  0  0  0  0  0
   -0.2333   -1.8667    0.0000 C   0  0  0  0  0  0  0  0  0  0  0  0
    1.9417   -4.0917    0.0000 C   0  0  0  0  0  0  0  0  0  0  0  0
    2.5542   -1.0500    0.0000 N   0  0  0  0  0  0  0  0  0  0  0  0
    3.2750   -2.2792    0.0000 C   0  0  0  0  0  0  0  0  0  0  0  0
    3.1167   -4.7500    0.0000 C   0  0  0  0  0  0  0  0  0  0  0  0
    2.2917   -4.8375    0.0000 C   0  0  0  0  0  0  0  0  0  0  0  0
    3.2750   -1.4625    0.0000 C   0  0  0  0  0  0  0  0  0  0  0  0
   -0.6458   -2.5667    0.0000 C   0  0  0  0  0  0  0  0  0  0  0  0
   -0.6458   -1.1500    0.0000 C   0  0  0  0  0  0  0  0  0  0  0  0
   -0.2375   -3.2792    0.0000 O   0  0  0  0  0  0  0  0  0  0  0  0
    3.6042   -5.4125    0.0000 C   0  0  0  0  0  0  0  0  0  0  0  0
    1.9542   -5.6000    0.0000 C   0  0  0  0  0  0  0  0  0  0  0  0
   -1.4708   -2.5667    0.0000 C   0  0  0  0  0  0  0  0  0  0  0  0
   -0.6500   -3.9917    0.0000 C   0  0  0  0  0  0  0  0  0  0  0  0
   -1.4708   -1.1417    0.0000 C   0  0  0  0  0  0  0  0  0  0  0  0
    3.2792   -6.1750    0.0000 C   0  0  0  0  0  0  0  0  0  0  0  0
    2.4542   -6.2625    0.0000 C   0  0  0  0  0  0  0  0  0  0  0  0
   -1.8833   -1.8542    0.0000 C   0  0  0  0  0  0  0  0  0  0  0  0
  2  3  2  0  0  0  0
  3  1  1  0  0  0  0
  4  5  2  0  0  0  0
  5  1  1  0  0  0  0
  6  1  1  0  0  0  0
  7  6  1  0  0  0  0
  8  7  1  0  0  0  0
  9  4  1  0  0  0  0
 10  7  2  0  0  0  0
 11  3  1  0  0  0  0
 12  6  2  0  0  0  0
 13  8  1  0  0  0  0
 14 10  1  0  0  0  0
 15 12  1  0  0  0  0
 16  9  1  0  0  0  0
 17  9  2  0  0  0  0
 18 16  1  0  0  0  0
 19 13  1  0  0  0  0
 20 14  1  0  0  0  0
 21 16  2  0  0  0  0
 22 18  1  0  0  0  0
 23 17  1  0  0  0  0
 24 19  2  0  0  0  0
 25 20  2  0  0  0  0
 26 23  2  0  0  0  0
  2  4  1  0  0  0  0
 11 15  2  0  0  0  0
 13 14  2  0  0  0  0
 25 24  1  0  0  0  0
 26 21  1  0  0  0  0
M  END
>  <Code> (P6668093)
P6668093

>  <Number of H-Donors> (P6668093)
0

>  <Number of H-Acceptors> (P6668093)
4

>  <Number of Rotatable bonds> (P6668093)
3

>  <CLogP> (P6668093)
4.400000000000000e+000

>  <Number of Rings> (P6668093)
5

>  <PSA> (P6668093)
6.550000000000000e+001

$$$$

  -ISIS-  11102212342D

 27 30  0  0  0  0  0  0  0  0999 V2000
    3.8542   -7.1750    0.0000 C   0  0  0  0  0  0  0  0  0  0  0  0
    4.5667   -6.7542    0.0000 C   0  0  0  0  0  0  0  0  0  0  0  0
    3.2375   -6.6250    0.0000 N   0  0  3  0  0  0  0  0  0  0  0  0
    5.2875   -7.1542    0.0000 C   0  0  0  0  0  0  0  0  0  0  0  0
    3.5625   -5.8667    0.0000 N   0  0  0  0  0  0  0  0  0  0  0  0
    3.8667   -8.0000    0.0000 N   0  0  0  0  0  0  0  0  0  0  0  0
    4.3875   -5.9417    0.0000 C   0  0  0  0  0  0  0  0  0  0  0  0
    5.9875   -6.7292    0.0000 C   0  0  0  0  0  0  0  0  0  0  0  0
    6.7000   -7.1292    0.0000 N   0  0  3  0  0  0  0  0  0  0  0  0
    4.5875   -8.3917    0.0000 C   0  0  0  0  0  0  0  0  0  0  0  0
    5.3000   -7.9667    0.0000 C   0  0  0  0  0  0  0  0  0  0  0  0
    8.1500   -7.9500    0.0000 N   0  0  3  0  0  0  0  0  0  0  0  0
    5.9750   -5.9042    0.0000 O   0  0  0  0  0  0  0  0  0  0  0  0
    6.6917   -7.9500    0.0000 C   0  0  0  0  0  0  0  0  0  0  0  0
    7.4125   -6.6792    0.0000 C   0  0  0  0  0  0  0  0  0  0  0  0
    4.6000   -9.2167    0.0000 C   0  0  0  0  0  0  0  0  0  0  0  0
    8.1625   -7.1000    0.0000 C   0  0  0  0  0  0  0  0  0  0  0  0
    7.4417   -8.3750    0.0000 C   0  0  0  0  0  0  0  0  0  0  0  0
    2.4375   -6.8042    0.0000 C   0  0  0  0  0  0  0  0  0  0  0  0
    4.9292   -5.3250    0.0000 C   0  0  0  0  0  0  0  0  0  0  0  0
    8.8750   -8.3625    0.0000 C   0  0  0  0  0  0  0  0  0  0  0  0
    3.8917   -9.6375    0.0000 C   0  0  0  0  0  0  0  0  0  0  0  0
    5.3125   -9.6042    0.0000 C   0  0  0  0  0  0  0  0  0  0  0  0
    8.8875   -9.1625    0.0000 C   0  0  0  0  0  0  0  0  0  0  0  0
    5.3250  -10.4375    0.0000 C   0  0  0  0  0  0  0  0  0  0  0  0
    3.9000  -10.4542    0.0000 C   0  0  0  0  0  0  0  0  0  0  0  0
    4.6167  -10.8625    0.0000 C   0  0  0  0  0  0  0  0  0  0  0  0
  2  1  2  0  0  0  0
  3  1  1  0  0  0  0
  4  2  1  0  0  0  0
  5  3  1  0  0  0  0
  6  1  1  0  0  0  0
  7  2  1  0  0  0  0
  8  4  1  0  0  0  0
  9  8  1  0  0  0  0
 10  6  2  0  0  0  0
 11 10  1  0  0  0  0
 12 17  1  0  0  0  0
 13  8  2  0  0  0  0
 14  9  1  0  0  0  0
 15  9  1  0  0  0  0
 16 10  1  0  0  0  0
 17 15  1  0  0  0  0
 18 14  1  0  0  0  0
 19  3  1  0  0  0  0
 20  7  1  0  0  0  0
 21 12  1  0  0  0  0
 22 16  2  0  0  0  0
 23 16  1  0  0  0  0
 24 21  1  0  0  0  0
 25 23  2  0  0  0  0
 26 22  1  0  0  0  0
 27 25  1  0  0  0  0
  7  5  2  0  0  0  0
 11  4  2  0  0  0  0
 26 27  2  0  0  0  0
 18 12  1  0  0  0  0
M  END
>  <Code> (P6667784)
P6667784

>  <Number of H-Donors> (P6667784)
0

>  <Number of H-Acceptors> (P6667784)
4

>  <Number of Rotatable bonds> (P6667784)
3

>  <CLogP> (P6667784)
2.700000000000000e+000

>  <Number of Rings> (P6667784)
4

>  <PSA> (P6667784)
5.430000000000000e+001

$$$$

  -ISIS-  11102212342D

 16 18  0  0  0  0  0  0  0  0999 V2000
    5.5417   -3.1542    0.0000 C   0  0  0  0  0  0  0  0  0  0  0  0
    5.8042   -2.3667    0.0000 C   0  0  0  0  0  0  0  0  0  0  0  0
    6.9042   -3.6042    0.0000 N   0  0  3  0  0  0  0  0  0  0  0  0
    5.1375   -1.8792    0.0000 N   0  0  0  0  0  0  0  0  0  0  0  0
    6.0917   -3.7667    0.0000 C   0  0  0  0  0  0  0  0  0  0  0  0
    4.4750   -2.3667    0.0000 C   0  0  0  0  0  0  0  0  0  0  0  0
    6.6167   -2.2000    0.0000 C   0  0  0  0  0  0  0  0  0  0  0  0
    4.7250   -3.1542    0.0000 C   0  0  0  0  0  0  0  0  0  0  0  0
    7.1667   -2.8167    0.0000 C   0  0  0  0  0  0  0  0  0  0  0  0
    7.4542   -4.2250    0.0000 C   0  0  0  0  0  0  0  0  0  0  0  0
    7.1917   -5.0042    0.0000 C   0  0  0  0  0  0  0  0  0  0  0  0
    6.3792   -5.1667    0.0000 C   0  0  0  0  0  0  0  0  0  0  0  0
    7.7375   -5.6167    0.0000 C   0  0  0  0  0  0  0  0  0  0  0  0
    7.4792   -6.4042    0.0000 C   0  0  0  0  0  0  0  0  0  0  0  0
    6.1167   -5.9500    0.0000 C   0  0  0  0  0  0  0  0  0  0  0  0
    6.6667   -6.5667    0.0000 C   0  0  0  0  0  0  0  0  0  0  0  0
  2  1  2  0  0  0  0
  3  5  1  0  0  0  0
  4  2  1  0  0  0  0
  5  1  1  0  0  0  0
  6  8  2  0  0  0  0
  7  2  1  0  0  0  0
  8  1  1  0  0  0  0
  9  3  1  0  0  0  0
 10  3  1  0  0  0  0
 11 10  1  0  0  0  0
 12 11  2  0  0  0  0
 13 11  1  0  0  0  0
 14 13  2  0  0  0  0
 15 12  1  0  0  0  0
 16 14  1  0  0  0  0
  6  4  1  0  0  0  0
  9  7  1  0  0  0  0
 16 15  2  0  0  0  0
M  END
>  <Code> (P6594984)
P6594984

>  <Number of H-Donors> (P6594984)
1

>  <Number of H-Acceptors> (P6594984)
1

>  <Number of Rotatable bonds> (P6594984)
2

>  <CLogP> (P6594984)
2.700000000000000e+000

>  <Number of Rings> (P6594984)
3

>  <PSA> (P6594984)
1.900000000000000e+001

$$$$

  -ISIS-  11102212342D

 25 27  0  0  0  0  0  0  0  0999 V2000
    6.2375   -5.4250    0.0000 C   0  0  0  0  0  0  0  0  0  0  0  0
    5.4125   -5.4042    0.0000 C   0  0  0  0  0  0  0  0  0  0  0  0
    5.7917   -6.6792    0.0000 N   0  0  3  0  0  0  0  0  0  0  0  0
    5.1292   -6.1792    0.0000 N   0  0  0  0  0  0  0  0  0  0  0  0
    6.4667   -6.2167    0.0000 C   0  0  0  0  0  0  0  0  0  0  0  0
    6.7292   -4.7667    0.0000 C   0  0  0  0  0  0  0  0  0  0  0  0
    4.9417   -4.7292    0.0000 C   0  0  0  0  0  0  0  0  0  0  0  0
    5.7667   -7.5042    0.0000 C   0  0  0  0  0  0  0  0  0  0  0  0
    7.2375   -4.1167    0.0000 N   0  0  0  0  0  0  0  0  0  0  0  0
    7.2500   -6.4917    0.0000 C   0  0  0  0  0  0  0  0  0  0  0  0
    4.1167   -4.7917    0.0000 O   0  0  0  0  0  0  0  0  0  0  0  0
    6.4667   -7.9292    0.0000 C   0  0  0  0  0  0  0  0  0  0  0  0
    5.0417   -7.8917    0.0000 C   0  0  0  0  0  0  0  0  0  0  0  0
    5.0167   -3.9042    0.0000 O   0  0  0  0  0  0  0  0  0  0  0  0
    5.7167   -9.1542    0.0000 C   0  0  0  0  0  0  0  0  0  0  0  0
    5.0167   -8.7167    0.0000 C   0  0  0  0  0  0  0  0  0  0  0  0
    6.4500   -8.7542    0.0000 C   0  0  0  0  0  0  0  0  0  0  0  0
    5.7000   -9.9792    0.0000 F   0  0  0  0  0  0  0  0  0  0  0  0
    7.3917   -7.3042    0.0000 C   0  0  0  0  0  0  0  0  0  0  0  0
    7.8667   -5.9542    0.0000 C   0  0  0  0  0  0  0  0  0  0  0  0
    4.3500   -3.4250    0.0000 C   0  0  0  0  0  0  0  0  0  0  0  0
    4.4250   -2.6042    0.0000 C   0  0  0  0  0  0  0  0  0  0  0  0
    8.6417   -6.2292    0.0000 C   0  0  0  0  0  0  0  0  0  0  0  0
    8.1667   -7.5792    0.0000 C   0  0  0  0  0  0  0  0  0  0  0  0
    8.8000   -7.0500    0.0000 C   0  0  0  0  0  0  0  0  0  0  0  0
  2  1  1  0  0  0  0
  3  5  1  0  0  0  0
  4  2  2  0  0  0  0
  5  1  2  0  0  0  0
  6  1  1  0  0  0  0
  7  2  1  0  0  0  0
  8  3  1  0  0  0  0
  9  6  3  0  0  0  0
 10  5  1  0  0  0  0
 11  7  2  0  0  0  0
 12  8  1  0  0  0  0
 13  8  2  0  0  0  0
 14  7  1  0  0  0  0
 15 16  2  0  0  0  0
 16 13  1  0  0  0  0
 17 12  2  0  0  0  0
 18 15  1  0  0  0  0
 19 10  2  0  0  0  0
 20 10  1  0  0  0  0
 21 14  1  0  0  0  0
 22 21  1  0  0  0  0
 23 20  2  0  0  0  0
 24 19  1  0  0  0  0
 25 23  1  0  0  0  0
  3  4  1  0  0  0  0
 25 24  2  0  0  0  0
 17 15  1  0  0  0  0
M  END
>  <Code> (P6328836)
P6328836

>  <Number of H-Donors> (P6328836)
0

>  <Number of H-Acceptors> (P6328836)
4

>  <Number of Rotatable bonds> (P6328836)
5

>  <CLogP> (P6328836)
4.600000000000000e+000

>  <Number of Rings> (P6328836)
3

>  <PSA> (P6328836)
6.790000000000001e+001

$$$$

  -ISIS-  11102212342D

 24 26  0  0  0  0  0  0  0  0999 V2000
    3.3667   -6.0375    0.0000 N   0  0  3  0  0  0  0  0  0  0  0  0
    2.7000   -6.5167    0.0000 C   0  0  0  0  0  0  0  0  0  0  0  0
    2.9542   -7.3042    0.0000 N   0  0  0  0  0  0  0  0  0  0  0  0
    4.0292   -6.5167    0.0000 C   0  0  0  0  0  0  0  0  0  0  0  0
    3.7792   -7.3042    0.0000 N   0  0  0  0  0  0  0  0  0  0  0  0
    4.8167   -6.2667    0.0000 S   0  0  0  0  0  0  0  0  0  0  0  0
    3.3625   -5.2125    0.0000 C   0  0  0  0  0  0  0  0  0  0  0  0
    6.2167   -6.5667    0.0000 C   0  0  0  0  0  0  0  0  0  0  0  0
    1.9125   -6.2667    0.0000 C   0  0  0  0  0  0  0  0  0  0  0  0
    6.3917   -5.7625    0.0000 O   0  0  0  0  0  0  0  0  0  0  0  0
    5.4292   -6.8167    0.0000 C   0  0  0  0  0  0  0  0  0  0  0  0
    6.8292   -7.1167    0.0000 O   0  0  0  0  0  0  0  0  0  0  0  0
    4.0792   -4.7917    0.0000 C   0  0  0  0  0  0  0  0  0  0  0  0
    2.6500   -4.7917    0.0000 C   0  0  0  0  0  0  0  0  0  0  0  0
    1.7417   -5.4625    0.0000 C   0  0  0  0  0  0  0  0  0  0  0  0
    1.3042   -6.8167    0.0000 C   0  0  0  0  0  0  0  0  0  0  0  0
    6.6542   -7.9292    0.0000 C   0  0  0  0  0  0  0  0  0  0  0  0
    7.2667   -8.4792    0.0000 C   0  0  0  0  0  0  0  0  0  0  0  0
    0.5167   -6.5667    0.0000 C   0  0  0  0  0  0  0  0  0  0  0  0
    4.0792   -3.9667    0.0000 C   0  0  0  0  0  0  0  0  0  0  0  0
    2.6417   -3.9750    0.0000 C   0  0  0  0  0  0  0  0  0  0  0  0
    0.9542   -5.2042    0.0000 C   0  0  0  0  0  0  0  0  0  0  0  0
    3.3625   -3.5542    0.0000 C   0  0  0  0  0  0  0  0  0  0  0  0
    0.3417   -5.7542    0.0000 C   0  0  0  0  0  0  0  0  0  0  0  0
  2  1  1  0  0  0  0
  3  2  2  0  0  0  0
  4  1  1  0  0  0  0
  5  4  2  0  0  0  0
  6  4  1  0  0  0  0
  7  1  1  0  0  0  0
  8 11  1  0  0  0  0
  9  2  1  0  0  0  0
 10  8  2  0  0  0  0
 11  6  1  0  0  0  0
 12  8  1  0  0  0  0
 13  7  2  0  0  0  0
 14  7  1  0  0  0  0
 15  9  2  0  0  0  0
 16  9  1  0  0  0  0
 17 12  1  0  0  0  0
 18 17  1  0  0  0  0
 19 16  2  0  0  0  0
 20 13  1  0  0  0  0
 21 14  2  0  0  0  0
 22 15  1  0  0  0  0
 23 21  1  0  0  0  0
 24 19  1  0  0  0  0
  5  3  1  0  0  0  0
 23 20  2  0  0  0  0
 24 22  2  0  0  0  0
M  END
>  <Code> (P6298924)
P6298924

>  <Number of H-Donors> (P6298924)
0

>  <Number of H-Acceptors> (P6298924)
5

>  <Number of Rotatable bonds> (P6298924)
7

>  <CLogP> (P6298924)
4.000000000000000e+000

>  <Number of Rings> (P6298924)
3

>  <PSA> (P6298924)
8.229999999999998e+001

$$$$

  -ISIS-  11102212342D

 30 33  0  0  0  0  0  0  0  0999 V2000
    7.4667   -3.7042    0.0000 C   0  0  0  0  0  0  0  0  0  0  0  0
    4.0542   -4.5375    0.0000 S   0  0  3  0  0  0  0  0  0  0  0  0
    6.9792   -4.3750    0.0000 N   0  0  3  0  0  0  0  0  0  0  0  0
    6.9792   -3.0417    0.0000 N   0  0  3  0  0  0  0  0  0  0  0  0
    6.2042   -4.1167    0.0000 C   0  0  0  0  0  0  0  0  0  0  0  0
    6.2042   -3.2917    0.0000 C   0  0  0  0  0  0  0  0  0  0  0  0
    3.3417   -4.9417    0.0000 N   0  0  0  0  0  0  0  0  0  0  0  0
    3.3417   -5.7667    0.0000 C   0  0  3  0  0  0  0  0  0  0  0  0
    4.0542   -7.0042    0.0000 C   0  0  0  0  0  0  0  0  0  0  0  0
    5.4875   -4.5292    0.0000 C   0  0  0  0  0  0  0  0  0  0  0  0
    4.7750   -4.1167    0.0000 C   0  0  0  0  0  0  0  0  0  0  0  0
    3.6500   -8.2875    0.0000 N   0  0  0  0  0  0  0  0  0  0  0  0
    3.3917   -7.5000    0.0000 C   0  0  0  0  0  0  0  0  0  0  0  0
    2.6292   -6.1792    0.0000 C   0  0  0  0  0  0  0  0  0  0  0  0
    4.0542   -6.1792    0.0000 C   0  0  0  0  0  0  0  0  0  0  0  0
    4.7292   -7.5000    0.0000 C   0  0  0  0  0  0  0  0  0  0  0  0
    5.4792   -2.8792    0.0000 C   0  0  0  0  0  0  0  0  0  0  0  0
    4.4667   -5.2542    0.0000 O   0  0  0  0  0  0  0  0  0  0  0  0
    3.6375   -3.8167    0.0000 O   0  0  0  0  0  0  0  0  0  0  0  0
    8.2875   -3.7000    0.0000 O   0  0  0  0  0  0  0  0  0  0  0  0
    4.4792   -8.2792    0.0000 C   0  0  0  0  0  0  0  0  0  0  0  0
    4.7750   -3.2917    0.0000 C   0  0  0  0  0  0  0  0  0  0  0  0
    1.9167   -5.7667    0.0000 O   0  0  0  0  0  0  0  0  0  0  0  0
    7.2417   -5.1542    0.0000 C   0  0  0  0  0  0  0  0  0  0  0  0
    7.2375   -2.2542    0.0000 C   0  0  0  0  0  0  0  0  0  0  0  0
    2.6292   -7.0042    0.0000 O   0  0  0  0  0  0  0  0  0  0  0  0
    5.5375   -7.3250    0.0000 C   0  0  0  0  0  0  0  0  0  0  0  0
    5.0292   -8.8917    0.0000 C   0  0  0  0  0  0  0  0  0  0  0  0
    6.0917   -7.9375    0.0000 C   0  0  0  0  0  0  0  0  0  0  0  0
    5.8375   -8.7250    0.0000 C   0  0  0  0  0  0  0  0  0  0  0  0
  2 11  1  0  0  0  0
  3  1  1  0  0  0  0
  4  1  1  0  0  0  0
  5  3  1  0  0  0  0
  6  4  1  0  0  0  0
  7  2  1  0  0  0  0
  8  7  1  0  0  0  0
  9 15  1  0  0  0  0
 10  5  1  0  0  0  0
 11 10  2  0  0  0  0
 12 13  1  0  0  0  0
 13  9  2  0  0  0  0
 14  8  1  0  0  0  0
 15  8  1  0  0  0  0
 16  9  1  0  0  0  0
 17  6  1  0  0  0  0
 18  2  2  0  0  0  0
 19  2  2  0  0  0  0
 20  1  2  0  0  0  0
 21 16  2  0  0  0  0
 22 17  2  0  0  0  0
 23 14  2  0  0  0  0
 24  3  1  0  0  0  0
 25  4  1  0  0  0  0
 26 14  1  0  0  0  0
 27 16  1  0  0  0  0
 28 21  1  0  0  0  0
 29 27  2  0  0  0  0
 30 29  1  0  0  0  0
  6  5  2  0  0  0  0
 22 11  1  0  0  0  0
 12 21  1  0  0  0  0
 28 30  2  0  0  0  0
M  END
>  <Code> (P6248929)
P6248929

>  <Number of H-Donors> (P6248929)
3

>  <Number of H-Acceptors> (P6248929)
5

>  <Number of Rotatable bonds> (P6248929)
6

>  <CLogP> (P6248929)
1.800000000000000e+000

>  <Number of Rings> (P6248929)
4

>  <PSA> (P6248929)
1.312000000000000e+002

$$$$

  -ISIS-  11102212342D

 22 23  0  0  0  0  0  0  0  0999 V2000
    4.0125   -0.5167    0.0000 S   0  0  3  0  0  0  0  0  0  0  0  0
    6.9792   -0.5667    0.0000 C   0  0  0  0  0  0  0  0  0  0  0  0
    4.5917    0.0625    0.0000 N   0  0  0  0  0  0  0  0  0  0  0  0
    3.3000   -0.9375    0.0000 C   0  0  0  0  0  0  0  0  0  0  0  0
    6.7625    0.2375    0.0000 C   0  0  0  0  0  0  0  0  0  0  0  0
    7.7792   -0.7792    0.0000 C   0  0  0  0  0  0  0  0  0  0  0  0
    5.9667    0.4458    0.0000 C   0  0  0  0  0  0  0  0  0  0  0  0
    4.0042    0.3083    0.0000 O   0  0  0  0  0  0  0  0  0  0  0  0
    4.7250   -0.9292    0.0000 O   0  0  0  0  0  0  0  0  0  0  0  0
    6.4000   -1.1542    0.0000 C   0  0  0  0  0  0  0  0  0  0  0  0
    3.3000   -1.7667    0.0000 C   0  0  0  0  0  0  0  0  0  0  0  0
    2.5792   -2.1792    0.0000 C   0  0  0  0  0  0  0  0  0  0  0  0
    5.3917   -0.1417    0.0000 C   0  0  0  0  0  0  0  0  0  0  0  0
    1.8667   -1.7667    0.0000 C   0  0  0  0  0  0  0  0  0  0  0  0
    8.3542   -0.1917    0.0000 O   0  0  0  0  0  0  0  0  0  0  0  0
    2.5792   -0.5250    0.0000 C   0  0  0  0  0  0  0  0  0  0  0  0
    1.8667   -0.9375    0.0000 C   0  0  0  0  0  0  0  0  0  0  0  0
    5.6042   -0.9417    0.0000 C   0  0  0  0  0  0  0  0  0  0  0  0
    7.3417    0.8208    0.0000 O   0  0  0  0  0  0  0  0  0  0  0  0
    7.9917   -1.5750    0.0000 O   0  0  0  0  0  0  0  0  0  0  0  0
    1.1542   -2.1792    0.0000 F   0  0  0  0  0  0  0  0  0  0  0  0
    2.5792   -3.0042    0.0000 C   0  0  0  0  0  0  0  0  0  0  0  0
  2 10  2  0  0  0  0
  3  1  1  0  0  0  0
  4  1  1  0  0  0  0
  5  7  2  0  0  0  0
  6  2  1  0  0  0  0
  7 13  1  0  0  0  0
  8  1  2  0  0  0  0
  9  1  2  0  0  0  0
 10 18  1  0  0  0  0
 11  4  1  0  0  0  0
 12 11  2  0  0  0  0
 13  3  1  0  0  0  0
 14 17  2  0  0  0  0
 15  6  2  0  0  0  0
 16  4  2  0  0  0  0
 17 16  1  0  0  0  0
 18 13  2  0  0  0  0
 19  5  1  0  0  0  0
 20  6  1  0  0  0  0
 21 14  1  0  0  0  0
 22 12  1  0  0  0  0
 12 14  1  0  0  0  0
  5  2  1  0  0  0  0
M  END
>  <Code> (P6248887)
P6248887

>  <Number of H-Donors> (P6248887)
3

>  <Number of H-Acceptors> (P6248887)
5

>  <Number of Rotatable bonds> (P6248887)
4

>  <CLogP> (P6248887)
2.400000000000000e+000

>  <Number of Rings> (P6248887)
2

>  <PSA> (P6248887)
1.121000000000000e+002

$$$$

  -ISIS-  11102212342D

 25 28  0  0  0  0  0  0  0  0999 V2000
    6.0250   -2.3292    0.0000 S   0  0  3  0  0  0  0  0  0  0  0  0
    3.8792    0.5625    0.0000 N   0  0  0  0  0  0  0  0  0  0  0  0
    4.5917   -0.6750    0.0000 C   0  0  0  0  0  0  0  0  0  0  0  0
    4.5917    0.1500    0.0000 C   0  0  0  0  0  0  0  0  0  0  0  0
    3.1667    0.1500    0.0000 C   0  0  0  0  0  0  0  0  0  0  0  0
    3.8792   -1.0875    0.0000 C   0  0  0  0  0  0  0  0  0  0  0  0
    5.3042   -1.9125    0.0000 C   0  0  0  0  0  0  0  0  0  0  0  0
    3.1667   -0.6750    0.0000 C   0  0  0  0  0  0  0  0  0  0  0  0
    5.3042   -1.0875    0.0000 C   0  0  0  0  0  0  0  0  0  0  0  0
    3.8792   -1.9125    0.0000 C   0  0  0  0  0  0  0  0  0  0  0  0
    6.7417   -2.7542    0.0000 N   0  0  0  0  0  0  0  0  0  0  0  0
    4.5917   -2.3250    0.0000 C   0  0  0  0  0  0  0  0  0  0  0  0
    6.4417   -1.6167    0.0000 O   0  0  0  0  0  0  0  0  0  0  0  0
    5.6042   -3.0542    0.0000 O   0  0  0  0  0  0  0  0  0  0  0  0
    8.1750   -2.7542    0.0000 C   0  0  0  0  0  0  0  0  0  0  0  0
    8.3417   -3.5667    0.0000 O   0  0  0  0  0  0  0  0  0  0  0  0
    5.3042    0.5708    0.0000 O   0  0  0  0  0  0  0  0  0  0  0  0
    2.4417    0.5708    0.0000 O   0  0  0  0  0  0  0  0  0  0  0  0
    7.4542   -2.3417    0.0000 C   0  0  0  0  0  0  0  0  0  0  0  0
    8.8917   -2.3500    0.0000 C   0  0  0  0  0  0  0  0  0  0  0  0
    9.1625   -3.6542    0.0000 C   0  0  0  0  0  0  0  0  0  0  0  0
    9.5042   -2.9125    0.0000 C   0  0  0  0  0  0  0  0  0  0  0  0
    2.4542   -1.0875    0.0000 C   0  0  0  0  0  0  0  0  0  0  0  0
    3.1667   -2.3250    0.0000 C   0  0  0  0  0  0  0  0  0  0  0  0
    2.4542   -1.9125    0.0000 C   0  0  0  0  0  0  0  0  0  0  0  0
  2  4  1  0  0  0  0
  3  9  2  0  0  0  0
  4  3  1  0  0  0  0
  5  8  1  0  0  0  0
  6 10  1  0  0  0  0
  7  1  1  0  0  0  0
  8  6  2  0  0  0  0
  9  7  1  0  0  0  0
 10 12  1  0  0  0  0
 11  1  1  0  0  0  0
 12  7  2  0  0  0  0
 13  1  2  0  0  0  0
 14  1  2  0  0  0  0
 15 19  1  0  0  0  0
 16 15  1  0  0  0  0
 17  4  2  0  0  0  0
 18  5  2  0  0  0  0
 19 11  1  0  0  0  0
 20 15  2  0  0  0  0
 21 16  1  0  0  0  0
 22 20  1  0  0  0  0
 23 25  2  0  0  0  0
 24 10  2  0  0  0  0
 25 24  1  0  0  0  0
  3  6  1  0  0  0  0
 21 22  2  0  0  0  0
 23  8  1  0  0  0  0
  5  2  1  0  0  0  0
M  END
>  <Code> (P6248868)
P6248868

>  <Number of H-Donors> (P6248868)
2

>  <Number of H-Acceptors> (P6248868)
4

>  <Number of Rotatable bonds> (P6248868)
4

>  <CLogP> (P6248868)
1.200000000000000e+000

>  <Number of Rings> (P6248868)
4

>  <PSA> (P6248868)
1.139000000000000e+002

$$$$

  -ISIS-  11102212342D

 28 30  0  0  0  0  0  0  0  0999 V2000
    1.5500   -3.8750    0.0000 S   0  0  3  0  0  0  0  0  0  0  0  0
    0.7667   -3.6000    0.0000 C   0  0  0  0  0  0  0  0  0  0  0  0
    2.3292   -4.1542    0.0000 N   0  0  0  0  0  0  0  0  0  0  0  0
    2.9542   -3.6125    0.0000 C   0  0  3  0  0  0  0  0  0  0  0  0
    3.8875   -4.7000    0.0000 C   0  0  0  0  0  0  0  0  0  0  0  0
    4.5542   -5.8542    0.0000 N   0  0  0  0  0  0  0  0  0  0  0  0
    4.6375   -5.0375    0.0000 C   0  0  0  0  0  0  0  0  0  0  0  0
    2.8042   -2.8000    0.0000 C   0  0  0  0  0  0  0  0  0  0  0  0
    3.7292   -3.8875    0.0000 C   0  0  0  0  0  0  0  0  0  0  0  0
    3.3292   -5.3167    0.0000 C   0  0  0  0  0  0  0  0  0  0  0  0
    0.6167   -2.7917    0.0000 C   0  0  0  0  0  0  0  0  0  0  0  0
    1.2750   -4.6542    0.0000 O   0  0  0  0  0  0  0  0  0  0  0  0
    1.8250   -3.0917    0.0000 O   0  0  0  0  0  0  0  0  0  0  0  0
    0.1417   -4.1292    0.0000 C   0  0  0  0  0  0  0  0  0  0  0  0
    3.7417   -6.0292    0.0000 C   0  0  0  0  0  0  0  0  0  0  0  0
    3.4292   -2.2667    0.0000 O   0  0  0  0  0  0  0  0  0  0  0  0
   -0.6333   -3.8542    0.0000 C   0  0  0  0  0  0  0  0  0  0  0  0
   -0.1583   -2.5167    0.0000 C   0  0  0  0  0  0  0  0  0  0  0  0
    2.0292   -2.5250    0.0000 O   0  0  0  0  0  0  0  0  0  0  0  0
   -0.7833   -3.0500    0.0000 C   0  0  0  0  0  0  0  0  0  0  0  0
    0.2917   -4.9500    0.0000 O   0  0  0  0  0  0  0  0  0  0  0  0
   -0.3125   -1.7000    0.0000 O   0  0  0  0  0  0  0  0  0  0  0  0
    2.5000   -5.3167    0.0000 C   0  0  0  0  0  0  0  0  0  0  0  0
    3.3292   -6.7500    0.0000 C   0  0  0  0  0  0  0  0  0  0  0  0
   -0.3375   -5.4792    0.0000 C   0  0  0  0  0  0  0  0  0  0  0  0
    0.3167   -1.1625    0.0000 C   0  0  0  0  0  0  0  0  0  0  0  0
    2.0875   -6.0292    0.0000 C   0  0  0  0  0  0  0  0  0  0  0  0
    2.5000   -6.7500    0.0000 C   0  0  0  0  0  0  0  0  0  0  0  0
  2  1  1  0  0  0  0
  3  1  1  0  0  0  0
  4  3  1  0  0  0  0
  5  9  1  0  0  0  0
  6  7  1  0  0  0  0
  7  5  2  0  0  0  0
  8  4  1  0  0  0  0
  9  4  1  0  0  0  0
 10  5  1  0  0  0  0
 11  2  2  0  0  0  0
 12  1  2  0  0  0  0
 13  1  2  0  0  0  0
 14  2  1  0  0  0  0
 15 10  2  0  0  0  0
 16  8  2  0  0  0  0
 17 14  2  0  0  0  0
 18 11  1  0  0  0  0
 19  8  1  0  0  0  0
 20 17  1  0  0  0  0
 21 14  1  0  0  0  0
 22 18  1  0  0  0  0
 23 10  1  0  0  0  0
 24 15  1  0  0  0  0
 25 21  1  0  0  0  0
 26 22  1  0  0  0  0
 27 23  2  0  0  0  0
 28 27  1  0  0  0  0
 18 20  2  0  0  0  0
 15  6  1  0  0  0  0
 28 24  2  0  0  0  0
M  END
>  <Code> (P6248847)
P6248847

>  <Number of H-Donors> (P6248847)
3

>  <Number of H-Acceptors> (P6248847)
6

>  <Number of Rotatable bonds> (P6248847)
8

>  <CLogP> (P6248847)
2.500000000000000e+000

>  <Number of Rings> (P6248847)
3

>  <PSA> (P6248847)
1.261000000000000e+002

$$$$

  -ISIS-  11102212342D

 25 28  0  0  0  0  0  0  0  0999 V2000
    6.8667   -3.1292    0.0000 S   0  0  3  0  0  0  0  0  0  0  0  0
    4.7167   -0.2417    0.0000 N   0  0  3  0  0  0  0  0  0  0  0  0
    5.4292   -0.6542    0.0000 C   0  0  0  0  0  0  0  0  0  0  0  0
    4.0042   -0.6542    0.0000 C   0  0  0  0  0  0  0  0  0  0  0  0
    5.4292   -1.4792    0.0000 C   0  0  0  0  0  0  0  0  0  0  0  0
    7.5917   -3.5417    0.0000 N   0  0  0  0  0  0  0  0  0  0  0  0
    4.0042   -1.4792    0.0000 C   0  0  0  0  0  0  0  0  0  0  0  0
    4.7167   -1.8917    0.0000 C   0  0  0  0  0  0  0  0  0  0  0  0
    7.5917   -4.3667    0.0000 C   0  0  0  0  0  0  0  0  0  0  0  0
    6.1500   -2.7167    0.0000 C   0  0  0  0  0  0  0  0  0  0  0  0
    6.1500   -1.8917    0.0000 C   0  0  0  0  0  0  0  0  0  0  0  0
    4.7250   -2.7167    0.0000 C   0  0  0  0  0  0  0  0  0  0  0  0
    6.9292   -4.8500    0.0000 N   0  0  0  0  0  0  0  0  0  0  0  0
    5.4292   -3.1292    0.0000 C   0  0  0  0  0  0  0  0  0  0  0  0
    8.2667   -4.8417    0.0000 S   0  0  0  0  0  0  0  0  0  0  0  0
    6.4542   -3.8500    0.0000 O   0  0  0  0  0  0  0  0  0  0  0  0
    7.2792   -2.4042    0.0000 O   0  0  0  0  0  0  0  0  0  0  0  0
    3.2875   -0.2417    0.0000 O   0  0  0  0  0  0  0  0  0  0  0  0
    6.1417   -0.2417    0.0000 O   0  0  0  0  0  0  0  0  0  0  0  0
    7.1917   -5.6292    0.0000 C   0  0  0  0  0  0  0  0  0  0  0  0
    8.0167   -5.6292    0.0000 C   0  0  0  0  0  0  0  0  0  0  0  0
    4.7167    0.5833    0.0000 C   0  0  0  0  0  0  0  0  0  0  0  0
    3.2917   -1.8917    0.0000 C   0  0  0  0  0  0  0  0  0  0  0  0
    4.0125   -3.1292    0.0000 C   0  0  0  0  0  0  0  0  0  0  0  0
    3.2917   -2.7292    0.0000 C   0  0  0  0  0  0  0  0  0  0  0  0
  2  3  1  0  0  0  0
  3  5  1  0  0  0  0
  4  7  1  0  0  0  0
  5 11  2  0  0  0  0
  6  1  1  0  0  0  0
  7  8  2  0  0  0  0
  8 12  1  0  0  0  0
  9  6  1  0  0  0  0
 10  1  1  0  0  0  0
 11 10  1  0  0  0  0
 12 14  1  0  0  0  0
 13  9  2  0  0  0  0
 14 10  2  0  0  0  0
 15  9  1  0  0  0  0
 16  1  2  0  0  0  0
 17  1  2  0  0  0  0
 18  4  2  0  0  0  0
 19  3  2  0  0  0  0
 20 13  1  0  0  0  0
 21 15  1  0  0  0  0
 22  2  1  0  0  0  0
 23 25  2  0  0  0  0
 24 12  2  0  0  0  0
 25 24  1  0  0  0  0
  5  8  1  0  0  0  0
 20 21  2  0  0  0  0
 23  7  1  0  0  0  0
  4  2  1  0  0  0  0
M  END
>  <Code> (P6248833)
P6248833

>  <Number of H-Donors> (P6248833)
1

>  <Number of H-Acceptors> (P6248833)
5

>  <Number of Rotatable bonds> (P6248833)
3

>  <CLogP> (P6248833)
1.300000000000000e+000

>  <Number of Rings> (P6248833)
4

>  <PSA> (P6248833)
1.331000000000000e+002

$$$$

  -ISIS-  11102212342D

 31 34  0  0  0  0  0  0  0  0999 V2000
    6.8667   -3.1292    0.0000 S   0  0  3  0  0  0  0  0  0  0  0  0
    4.7167   -0.2417    0.0000 N   0  0  3  0  0  0  0  0  0  0  0  0
    5.4292   -0.6542    0.0000 C   0  0  0  0  0  0  0  0  0  0  0  0
    4.0042   -0.6542    0.0000 C   0  0  0  0  0  0  0  0  0  0  0  0
    5.4292   -1.4792    0.0000 C   0  0  0  0  0  0  0  0  0  0  0  0
    4.0042   -1.4792    0.0000 C   0  0  0  0  0  0  0  0  0  0  0  0
    4.7167   -1.8917    0.0000 C   0  0  0  0  0  0  0  0  0  0  0  0
    6.1500   -2.7167    0.0000 C   0  0  0  0  0  0  0  0  0  0  0  0
    7.5917   -3.5417    0.0000 N   0  0  0  0  0  0  0  0  0  0  0  0
    9.0167   -3.5292    0.0000 C   0  0  0  0  0  0  0  0  0  0  0  0
    6.1500   -1.8917    0.0000 C   0  0  0  0  0  0  0  0  0  0  0  0
    4.7250   -2.7167    0.0000 C   0  0  0  0  0  0  0  0  0  0  0  0
    8.3042   -3.1250    0.0000 C   0  0  0  0  0  0  0  0  0  0  0  0
    9.0250   -4.3542    0.0000 C   0  0  0  0  0  0  0  0  0  0  0  0
    5.4292   -3.1292    0.0000 C   0  0  0  0  0  0  0  0  0  0  0  0
    6.4542   -3.8500    0.0000 O   0  0  0  0  0  0  0  0  0  0  0  0
    7.2792   -2.4042    0.0000 O   0  0  0  0  0  0  0  0  0  0  0  0
    6.1417   -0.2417    0.0000 O   0  0  0  0  0  0  0  0  0  0  0  0
    3.2875   -0.2417    0.0000 O   0  0  0  0  0  0  0  0  0  0  0  0
    9.7375   -4.7667    0.0000 O   0  0  0  0  0  0  0  0  0  0  0  0
    4.7167    0.5833    0.0000 C   0  0  0  0  0  0  0  0  0  0  0  0
    3.2917   -1.8917    0.0000 C   0  0  0  0  0  0  0  0  0  0  0  0
    8.3042   -4.7750    0.0000 O   0  0  0  0  0  0  0  0  0  0  0  0
    9.7292   -3.1167    0.0000 C   0  0  0  0  0  0  0  0  0  0  0  0
    4.0125   -3.1292    0.0000 C   0  0  0  0  0  0  0  0  0  0  0  0
    8.3000   -2.3042    0.0000 C   0  0  0  0  0  0  0  0  0  0  0  0
    3.2917   -2.7292    0.0000 C   0  0  0  0  0  0  0  0  0  0  0  0
    7.5917   -4.3667    0.0000 C   0  0  0  0  0  0  0  0  0  0  0  0
    5.4292    0.9958    0.0000 C   0  0  0  0  0  0  0  0  0  0  0  0
    9.7292   -2.2917    0.0000 C   0  0  0  0  0  0  0  0  0  0  0  0
    9.0042   -1.8792    0.0000 C   0  0  0  0  0  0  0  0  0  0  0  0
  2  3  1  0  0  0  0
  3  5  1  0  0  0  0
  4  6  1  0  0  0  0
  5 11  2  0  0  0  0
  6  7  2  0  0  0  0
  7 12  1  0  0  0  0
  8  1  1  0  0  0  0
  9  1  1  0  0  0  0
 10 13  2  0  0  0  0
 11  8  1  0  0  0  0
 12 15  1  0  0  0  0
 13  9  1  0  0  0  0
 14 10  1  0  0  0  0
 15  8  2  0  0  0  0
 16  1  2  0  0  0  0
 17  1  2  0  0  0  0
 18  3  2  0  0  0  0
 19  4  2  0  0  0  0
 20 14  2  0  0  0  0
 21  2  1  0  0  0  0
 22 27  2  0  0  0  0
 23 14  1  0  0  0  0
 24 10  1  0  0  0  0
 25 12  2  0  0  0  0
 26 13  1  0  0  0  0
 27 25  1  0  0  0  0
 28 23  1  0  0  0  0
 29 21  1  0  0  0  0
 30 31  1  0  0  0  0
 31 26  2  0  0  0  0
  5  7  1  0  0  0  0
 24 30  2  0  0  0  0
  6 22  1  0  0  0  0
  4  2  1  0  0  0  0
M  END
>  <Code> (P6248824)
P6248824

>  <Number of H-Donors> (P6248824)
1

>  <Number of H-Acceptors> (P6248824)
6

>  <Number of Rotatable bonds> (P6248824)
6

>  <CLogP> (P6248824)
2.500000000000000e+000

>  <Number of Rings> (P6248824)
4

>  <PSA> (P6248824)
1.182000000000000e+002

$$$$

  -ISIS-  11102212342D

 28 31  0  0  0  0  0  0  0  0999 V2000
    6.8667   -3.1292    0.0000 S   0  0  3  0  0  0  0  0  0  0  0  0
    4.7167   -0.2417    0.0000 N   0  0  3  0  0  0  0  0  0  0  0  0
    5.4292   -0.6542    0.0000 C   0  0  0  0  0  0  0  0  0  0  0  0
    4.0042   -0.6542    0.0000 C   0  0  0  0  0  0  0  0  0  0  0  0
    5.4292   -1.4792    0.0000 C   0  0  0  0  0  0  0  0  0  0  0  0
    4.0042   -1.4792    0.0000 C   0  0  0  0  0  0  0  0  0  0  0  0
    4.7167   -1.8917    0.0000 C   0  0  0  0  0  0  0  0  0  0  0  0
    6.1500   -2.7167    0.0000 C   0  0  0  0  0  0  0  0  0  0  0  0
    7.5917   -3.5417    0.0000 N   0  0  0  0  0  0  0  0  0  0  0  0
    6.1500   -1.8917    0.0000 C   0  0  0  0  0  0  0  0  0  0  0  0
    4.7250   -2.7167    0.0000 C   0  0  0  0  0  0  0  0  0  0  0  0
    5.4292   -3.1292    0.0000 C   0  0  0  0  0  0  0  0  0  0  0  0
    7.2792   -2.4042    0.0000 O   0  0  0  0  0  0  0  0  0  0  0  0
    6.4542   -3.8500    0.0000 O   0  0  0  0  0  0  0  0  0  0  0  0
    8.3042   -3.1250    0.0000 C   0  0  0  0  0  0  0  0  0  0  0  0
    6.1417   -0.2417    0.0000 O   0  0  0  0  0  0  0  0  0  0  0  0
    3.2875   -0.2417    0.0000 O   0  0  0  0  0  0  0  0  0  0  0  0
    9.0167   -3.5292    0.0000 C   0  0  0  0  0  0  0  0  0  0  0  0
    4.7167    0.5833    0.0000 C   0  0  0  0  0  0  0  0  0  0  0  0
    3.2917   -1.8917    0.0000 C   0  0  0  0  0  0  0  0  0  0  0  0
    4.0125   -3.1292    0.0000 C   0  0  0  0  0  0  0  0  0  0  0  0
    3.2917   -2.7292    0.0000 C   0  0  0  0  0  0  0  0  0  0  0  0
    8.3000   -2.3042    0.0000 C   0  0  0  0  0  0  0  0  0  0  0  0
    9.0250   -4.3542    0.0000 C   0  0  0  0  0  0  0  0  0  0  0  0
    9.7292   -3.1167    0.0000 C   0  0  0  0  0  0  0  0  0  0  0  0
    5.4292    0.9958    0.0000 C   0  0  0  0  0  0  0  0  0  0  0  0
    9.0042   -1.8792    0.0000 C   0  0  0  0  0  0  0  0  0  0  0  0
    9.7292   -2.2917    0.0000 C   0  0  0  0  0  0  0  0  0  0  0  0
  2  3  1  0  0  0  0
  3  5  1  0  0  0  0
  4  6  1  0  0  0  0
  5 10  2  0  0  0  0
  6  7  2  0  0  0  0
  7 11  1  0  0  0  0
  8  1  1  0  0  0  0
  9  1  1  0  0  0  0
 10  8  1  0  0  0  0
 11 12  1  0  0  0  0
 12  8  2  0  0  0  0
 13  1  2  0  0  0  0
 14  1  2  0  0  0  0
 15  9  1  0  0  0  0
 16  3  2  0  0  0  0
 17  4  2  0  0  0  0
 18 15  2  0  0  0  0
 19  2  1  0  0  0  0
 20 22  2  0  0  0  0
 21 11  2  0  0  0  0
 22 21  1  0  0  0  0
 23 15  1  0  0  0  0
 24 18  1  0  0  0  0
 25 18  1  0  0  0  0
 26 19  1  0  0  0  0
 27 23  2  0  0  0  0
 28 27  1  0  0  0  0
  5  7  1  0  0  0  0
 25 28  2  0  0  0  0
  6 20  1  0  0  0  0
  4  2  1  0  0  0  0
M  END
>  <Code> (P6248823)
P6248823

>  <Number of H-Donors> (P6248823)
1

>  <Number of H-Acceptors> (P6248823)
4

>  <Number of Rotatable bonds> (P6248823)
4

>  <CLogP> (P6248823)
3.100000000000000e+000

>  <Number of Rings> (P6248823)
4

>  <PSA> (P6248823)
9.190000000000001e+001

$$$$

  -ISIS-  11102212342D

 30 33  0  0  0  0  0  0  0  0999 V2000
    4.7167   -0.2417    0.0000 N   0  0  3  0  0  0  0  0  0  0  0  0
    6.8667   -3.1292    0.0000 S   0  0  3  0  0  0  0  0  0  0  0  0
    5.4292   -0.6542    0.0000 C   0  0  0  0  0  0  0  0  0  0  0  0
    4.0042   -0.6542    0.0000 C   0  0  0  0  0  0  0  0  0  0  0  0
    5.4292   -1.4792    0.0000 C   0  0  0  0  0  0  0  0  0  0  0  0
    4.0042   -1.4792    0.0000 C   0  0  0  0  0  0  0  0  0  0  0  0
    4.7167   -1.8917    0.0000 C   0  0  0  0  0  0  0  0  0  0  0  0
    6.1500   -2.7167    0.0000 C   0  0  0  0  0  0  0  0  0  0  0  0
    6.1500   -1.8917    0.0000 C   0  0  0  0  0  0  0  0  0  0  0  0
    7.5917   -3.5417    0.0000 N   0  0  0  0  0  0  0  0  0  0  0  0
    4.7250   -2.7167    0.0000 C   0  0  0  0  0  0  0  0  0  0  0  0
   10.4500   -3.5292    0.0000 C   0  0  0  0  0  0  0  0  0  0  0  0
    5.4292   -3.1292    0.0000 C   0  0  0  0  0  0  0  0  0  0  0  0
    6.4542   -3.8500    0.0000 O   0  0  0  0  0  0  0  0  0  0  0  0
    7.2792   -2.4042    0.0000 O   0  0  0  0  0  0  0  0  0  0  0  0
    9.7292   -3.1167    0.0000 C   0  0  0  0  0  0  0  0  0  0  0  0
    6.1417   -0.2417    0.0000 O   0  0  0  0  0  0  0  0  0  0  0  0
    3.2875   -0.2417    0.0000 O   0  0  0  0  0  0  0  0  0  0  0  0
    8.3042   -3.1250    0.0000 C   0  0  0  0  0  0  0  0  0  0  0  0
    9.0167   -3.5292    0.0000 C   0  0  0  0  0  0  0  0  0  0  0  0
   11.1625   -3.1125    0.0000 O   0  0  0  0  0  0  0  0  0  0  0  0
    4.7167    0.5833    0.0000 C   0  0  0  0  0  0  0  0  0  0  0  0
   10.4542   -4.3542    0.0000 O   0  0  0  0  0  0  0  0  0  0  0  0
    3.2917   -1.8917    0.0000 C   0  0  0  0  0  0  0  0  0  0  0  0
    4.0125   -3.1292    0.0000 C   0  0  0  0  0  0  0  0  0  0  0  0
    9.7292   -2.2917    0.0000 C   0  0  0  0  0  0  0  0  0  0  0  0
    3.2917   -2.7292    0.0000 C   0  0  0  0  0  0  0  0  0  0  0  0
    9.0042   -1.8792    0.0000 C   0  0  0  0  0  0  0  0  0  0  0  0
    8.3000   -2.3042    0.0000 C   0  0  0  0  0  0  0  0  0  0  0  0
    5.4292    0.9958    0.0000 C   0  0  0  0  0  0  0  0  0  0  0  0
  2  8  1  0  0  0  0
  3  1  1  0  0  0  0
  4  1  1  0  0  0  0
  5  3  1  0  0  0  0
  6  4  1  0  0  0  0
  7  6  2  0  0  0  0
  8  9  1  0  0  0  0
  9  5  2  0  0  0  0
 10  2  1  0  0  0  0
 11  7  1  0  0  0  0
 12 16  1  0  0  0  0
 13 11  1  0  0  0  0
 14  2  2  0  0  0  0
 15  2  2  0  0  0  0
 16 20  1  0  0  0  0
 17  3  2  0  0  0  0
 18  4  2  0  0  0  0
 19 10  1  0  0  0  0
 20 19  2  0  0  0  0
 21 12  2  0  0  0  0
 22  1  1  0  0  0  0
 23 12  1  0  0  0  0
 24  6  1  0  0  0  0
 25 27  1  0  0  0  0
 26 28  1  0  0  0  0
 27 24  2  0  0  0  0
 28 29  2  0  0  0  0
 29 19  1  0  0  0  0
 30 22  1  0  0  0  0
  5  7  1  0  0  0  0
 25 11  2  0  0  0  0
 13  8  2  0  0  0  0
 16 26  2  0  0  0  0
M  END
>  <Code> (P6248822)
P6248822

>  <Number of H-Donors> (P6248822)
2

>  <Number of H-Acceptors> (P6248822)
6

>  <Number of Rotatable bonds> (P6248822)
5

>  <CLogP> (P6248822)
2.200000000000000e+000

>  <Number of Rings> (P6248822)
4

>  <PSA> (P6248822)
1.292000000000000e+002

$$$$

  -ISIS-  11102212342D

 29 32  0  0  0  0  0  0  0  0999 V2000
    1.9042   -4.2125    0.0000 N   0  0  0  0  0  0  0  0  0  0  0  0
    8.3917   -5.4000    0.0000 S   0  0  0  0  0  0  0  0  0  0  0  0
    7.6292   -5.0542    0.0000 C   0  0  0  0  0  0  0  0  0  0  0  0
    1.2000   -5.4500    0.0000 C   0  0  0  0  0  0  0  0  0  0  0  0
    1.9042   -5.0292    0.0000 N   0  0  3  0  0  0  0  0  0  0  0  0
    8.9542   -4.8000    0.0000 C   0  0  0  0  0  0  0  0  0  0  0  0
    8.5417   -4.0667    0.0000 N   0  0  0  0  0  0  0  0  0  0  0  0
    1.2000   -3.8000    0.0000 N   0  0  0  0  0  0  0  0  0  0  0  0
    0.4875   -5.0375    0.0000 C   0  0  0  0  0  0  0  0  0  0  0  0
    7.7417   -4.2375    0.0000 N   0  0  0  0  0  0  0  0  0  0  0  0
    6.9167   -5.4500    0.0000 N   0  0  0  0  0  0  0  0  0  0  0  0
    0.4875   -4.2125    0.0000 C   0  0  0  0  0  0  0  0  0  0  0  0
    6.2042   -5.0375    0.0000 C   0  0  0  0  0  0  0  0  0  0  0  0
    1.2000   -6.2750    0.0000 O   0  0  0  0  0  0  0  0  0  0  0  0
    9.7792   -4.8917    0.0000 C   0  0  3  0  0  0  0  0  0  0  0  0
    6.2167   -4.2042    0.0000 O   0  0  0  0  0  0  0  0  0  0  0  0
    2.6167   -5.4375    0.0000 C   0  0  0  0  0  0  0  0  0  0  0  0
   -0.2208   -5.4375    0.0000 C   0  0  0  0  0  0  0  0  0  0  0  0
    5.4750   -5.4375    0.0000 C   0  0  0  0  0  0  0  0  0  0  0  0
   -0.2208   -3.8042    0.0000 C   0  0  0  0  0  0  0  0  0  0  0  0
   10.1792   -5.6125    0.0000 C   0  0  0  0  0  0  0  0  0  0  0  0
   10.3417   -4.2792    0.0000 C   0  0  0  0  0  0  0  0  0  0  0  0
    3.3417   -5.0292    0.0000 C   0  0  0  0  0  0  0  0  0  0  0  0
    4.7667   -5.0292    0.0000 C   0  0  0  0  0  0  0  0  0  0  0  0
   -0.9333   -5.0417    0.0000 C   0  0  0  0  0  0  0  0  0  0  0  0
    4.0500   -5.4375    0.0000 C   0  0  0  0  0  0  0  0  0  0  0  0
   -0.9333   -4.2125    0.0000 C   0  0  0  0  0  0  0  0  0  0  0  0
   10.9875   -5.4417    0.0000 C   0  0  0  0  0  0  0  0  0  0  0  0
   11.0875   -4.6292    0.0000 C   0  0  0  0  0  0  0  0  0  0  0  0
  2  3  1  0  0  0  0
  3 11  1  0  0  0  0
  4  5  1  0  0  0  0
  5  1  1  0  0  0  0
  6  2  1  0  0  0  0
  7 10  1  0  0  0  0
  8  1  2  0  0  0  0
  9 12  2  0  0  0  0
 10  3  2  0  0  0  0
 11 13  1  0  0  0  0
 12  8  1  0  0  0  0
 13 19  1  0  0  0  0
 14  4  2  0  0  0  0
 15  6  1  0  0  0  0
 16 13  2  0  0  0  0
 17  5  1  0  0  0  0
 18  9  1  0  0  0  0
 19 24  1  0  0  0  0
 20 12  1  0  0  0  0
 21 15  1  0  0  0  0
 22 15  1  0  0  0  0
 23 17  1  0  0  0  0
 24 26  1  0  0  0  0
 25 27  1  0  0  0  0
 26 23  1  0  0  0  0
 27 20  2  0  0  0  0
 28 21  1  0  0  0  0
 29 22  1  0  0  0  0
  4  9  1  0  0  0  0
 18 25  2  0  0  0  0
  6  7  2  0  0  0  0
 29 28  1  0  0  0  0
M  END
>  <Code> (P6248130)
P6248130

>  <Number of H-Donors> (P6248130)
1

>  <Number of H-Acceptors> (P6248130)
6

>  <Number of Rotatable bonds> (P6248130)
8

>  <CLogP> (P6248130)
4.400000000000000e+000

>  <Number of Rings> (P6248130)
4

>  <PSA> (P6248130)
1.282000000000000e+002

$$$$

  -ISIS-  11102212342D

 26 29  0  0  0  0  0  0  0  0999 V2000
    0.9417   -1.2125    0.0000 S   0  0  0  0  0  0  0  0  0  0  0  0
    0.2125   -0.8292    0.0000 C   0  0  0  0  0  0  0  0  0  0  0  0
    1.5292   -0.6292    0.0000 C   0  0  0  0  0  0  0  0  0  0  0  0
   -1.1583    0.1083    0.0000 C   0  0  0  0  0  0  0  0  0  0  0  0
   -2.5958    0.2208    0.0000 N   0  0  3  0  0  0  0  0  0  0  0  0
   -1.8458    0.5708    0.0000 C   0  0  0  0  0  0  0  0  0  0  0  0
    1.1625    0.0875    0.0000 N   0  0  0  0  0  0  0  0  0  0  0  0
   -1.2125   -0.7292    0.0000 C   0  0  0  0  0  0  0  0  0  0  0  0
   -3.3333    0.5833    0.0000 N   0  0  0  0  0  0  0  0  0  0  0  0
   -0.5333   -1.1917    0.0000 N   0  0  0  0  0  0  0  0  0  0  0  0
   -3.9083   -0.0125    0.0000 N   0  0  0  0  0  0  0  0  0  0  0  0
    0.3542   -0.0250    0.0000 N   0  0  0  0  0  0  0  0  0  0  0  0
   -3.5250   -0.7417    0.0000 N   0  0  0  0  0  0  0  0  0  0  0  0
   -2.7083   -0.6042    0.0000 C   0  0  0  0  0  0  0  0  0  0  0  0
   -1.7833    1.4000    0.0000 C   0  0  0  0  0  0  0  0  0  0  0  0
   -0.4125    0.4708    0.0000 C   0  0  0  0  0  0  0  0  0  0  0  0
    2.3292   -0.7667    0.0000 C   0  0  3  0  0  0  0  0  0  0  0  0
   -1.9583   -1.0917    0.0000 O   0  0  0  0  0  0  0  0  0  0  0  0
   -1.0458    1.7583    0.0000 C   0  0  0  0  0  0  0  0  0  0  0  0
    2.7000   -1.5000    0.0000 O   0  0  0  0  0  0  0  0  0  0  0  0
   -0.3500    1.2958    0.0000 C   0  0  0  0  0  0  0  0  0  0  0  0
   -2.4708    1.8625    0.0000 C   0  0  0  0  0  0  0  0  0  0  0  0
    3.5125   -1.3750    0.0000 C   0  0  0  0  0  0  0  0  0  0  0  0
   -0.9958    2.5958    0.0000 C   0  0  0  0  0  0  0  0  0  0  0  0
    2.9167   -0.1875    0.0000 C   0  0  0  0  0  0  0  0  0  0  0  0
    3.6417   -0.5667    0.0000 C   0  0  0  0  0  0  0  0  0  0  0  0
  2  1  1  0  0  0  0
  3  1  1  0  0  0  0
  4  8  1  0  0  0  0
  5  6  1  0  0  0  0
  6  4  2  0  0  0  0
  7  3  2  0  0  0  0
  8 10  1  0  0  0  0
  9  5  1  0  0  0  0
 10  2  1  0  0  0  0
 11  9  2  0  0  0  0
 12  2  2  0  0  0  0
 13 14  2  0  0  0  0
 14  5  1  0  0  0  0
 15  6  1  0  0  0  0
 16  4  1  0  0  0  0
 17  3  1  0  0  0  0
 18  8  2  0  0  0  0
 19 21  1  0  0  0  0
 20 17  1  0  0  0  0
 21 16  2  0  0  0  0
 22 15  1  0  0  0  0
 23 20  1  0  0  0  0
 24 19  1  0  0  0  0
 25 17  1  0  0  0  0
 26 25  1  0  0  0  0
  7 12  1  0  0  0  0
 23 26  1  0  0  0  0
 15 19  2  0  0  0  0
 13 11  1  0  0  0  0
M  END
>  <Code> (P6247888)
P6247888

>  <Number of H-Donors> (P6247888)
1

>  <Number of H-Acceptors> (P6247888)
7

>  <Number of Rotatable bonds> (P6247888)
4

>  <CLogP> (P6247888)
1.500000000000000e+000

>  <Number of Rings> (P6247888)
4

>  <PSA> (P6247888)
1.359000000000000e+002

$$$$

  -ISIS-  11102212342D

 27 30  0  0  0  0  0  0  0  0999 V2000
    9.5542  -13.0750    0.0000 N   0  0  3  0  0  0  0  0  0  0  0  0
    9.2417  -13.8417    0.0000 N   0  0  0  0  0  0  0  0  0  0  0  0
    9.7417  -14.4917    0.0000 C   0  0  0  0  0  0  0  0  0  0  0  0
    9.4167  -15.2542    0.0000 N   0  0  3  0  0  0  0  0  0  0  0  0
   10.3750  -12.9750    0.0000 C   0  0  0  0  0  0  0  0  0  0  0  0
    9.2042  -12.3292    0.0000 C   0  0  0  0  0  0  0  0  0  0  0  0
   10.5292  -12.1625    0.0000 N   0  0  0  0  0  0  0  0  0  0  0  0
    8.6167  -15.4500    0.0000 N   0  0  0  0  0  0  0  0  0  0  0  0
    9.8125  -11.7667    0.0000 N   0  0  0  0  0  0  0  0  0  0  0  0
    6.2375  -10.3000    0.0000 C   0  0  0  0  0  0  0  0  0  0  0  0
    9.8542  -15.9542    0.0000 C   0  0  0  0  0  0  0  0  0  0  0  0
    5.9042   -9.5667    0.0000 N   0  0  0  0  0  0  0  0  0  0  0  0
    9.3167  -16.5917    0.0000 C   0  0  0  0  0  0  0  0  0  0  0  0
    7.0500  -10.4542    0.0000 N   0  0  0  0  0  0  0  0  0  0  0  0
   10.5625  -14.3917    0.0000 C   0  0  0  0  0  0  0  0  0  0  0  0
    5.6167  -10.8542    0.0000 S   0  0  0  0  0  0  0  0  0  0  0  0
   10.8667  -13.6250    0.0000 C   0  0  0  0  0  0  0  0  0  0  0  0
    8.5500  -16.2667    0.0000 C   0  0  0  0  0  0  0  0  0  0  0  0
    5.0875   -9.6417    0.0000 C   0  0  0  0  0  0  0  0  0  0  0  0
    7.3042  -11.2375    0.0000 C   0  0  0  0  0  0  0  0  0  0  0  0
    4.9167  -10.4500    0.0000 C   0  0  0  0  0  0  0  0  0  0  0  0
    8.4000  -12.1750    0.0000 C   0  0  0  0  0  0  0  0  0  0  0  0
    6.7667  -11.8625    0.0000 O   0  0  0  0  0  0  0  0  0  0  0  0
    8.1292  -11.3917    0.0000 C   0  0  0  0  0  0  0  0  0  0  0  0
   10.6667  -16.0292    0.0000 C   0  0  0  0  0  0  0  0  0  0  0  0
    7.8500  -16.7042    0.0000 C   0  0  0  0  0  0  0  0  0  0  0  0
    4.5417   -9.0292    0.0000 C   0  0  0  0  0  0  0  0  0  0  0  0
  2  1  1  0  0  0  0
  3  2  2  0  0  0  0
  4  3  1  0  0  0  0
  5  1  1  0  0  0  0
  6  1  1  0  0  0  0
  7  5  2  0  0  0  0
  8  4  1  0  0  0  0
  9  6  2  0  0  0  0
 10 14  1  0  0  0  0
 11  4  1  0  0  0  0
 12 10  2  0  0  0  0
 13 11  2  0  0  0  0
 14 20  1  0  0  0  0
 15 17  2  0  0  0  0
 16 10  1  0  0  0  0
 17  5  1  0  0  0  0
 18  8  2  0  0  0  0
 19 12  1  0  0  0  0
 20 24  1  0  0  0  0
 21 16  1  0  0  0  0
 22  6  1  0  0  0  0
 23 20  2  0  0  0  0
 24 22  1  0  0  0  0
 25 11  1  0  0  0  0
 26 18  1  0  0  0  0
 27 19  1  0  0  0  0
  7  9  1  0  0  0  0
  3 15  1  0  0  0  0
 18 13  1  0  0  0  0
 21 19  2  0  0  0  0
M  END
>  <Code> (P6247608)
P6247608

>  <Number of H-Donors> (P6247608)
1

>  <Number of H-Acceptors> (P6247608)
6

>  <Number of Rotatable bonds> (P6247608)
5

>  <CLogP> (P6247608)
1.600000000000000e+000

>  <Number of Rings> (P6247608)
4

>  <PSA> (P6247608)
1.311000000000000e+002

$$$$

  -ISIS-  11102212342D

 28 31  0  0  0  0  0  0  0  0999 V2000
    8.3542  -13.9167    0.0000 N   0  0  3  0  0  0  0  0  0  0  0  0
    7.9292  -14.6417    0.0000 N   0  0  0  0  0  0  0  0  0  0  0  0
    8.3417  -15.3542    0.0000 C   0  0  0  0  0  0  0  0  0  0  0  0
    7.9167  -16.0542    0.0000 N   0  0  3  0  0  0  0  0  0  0  0  0
    5.4500  -10.7125    0.0000 C   0  0  0  0  0  0  0  0  0  0  0  0
    9.1667  -13.9292    0.0000 C   0  0  0  0  0  0  0  0  0  0  0  0
    8.1042  -13.1375    0.0000 C   0  0  0  0  0  0  0  0  0  0  0  0
    5.2000   -9.9167    0.0000 N   0  0  0  0  0  0  0  0  0  0  0  0
    9.4417  -13.1542    0.0000 N   0  0  0  0  0  0  0  0  0  0  0  0
    7.0917  -16.1417    0.0000 N   0  0  0  0  0  0  0  0  0  0  0  0
    8.7792  -12.6625    0.0000 N   0  0  0  0  0  0  0  0  0  0  0  0
    8.2417  -16.8167    0.0000 C   0  0  0  0  0  0  0  0  0  0  0  0
    4.7750  -11.1875    0.0000 S   0  0  0  0  0  0  0  0  0  0  0  0
    6.2292  -10.9792    0.0000 N   0  0  0  0  0  0  0  0  0  0  0  0
    4.3750   -9.9042    0.0000 C   0  0  0  0  0  0  0  0  0  0  0  0
    7.6292  -17.3625    0.0000 C   0  0  0  0  0  0  0  0  0  0  0  0
    4.1125  -10.6917    0.0000 C   0  0  0  0  0  0  0  0  0  0  0  0
    9.1542  -15.3542    0.0000 C   0  0  0  0  0  0  0  0  0  0  0  0
    9.5792  -14.6542    0.0000 C   0  0  0  0  0  0  0  0  0  0  0  0
    6.9167  -16.9500    0.0000 C   0  0  0  0  0  0  0  0  0  0  0  0
    6.3875  -11.7875    0.0000 C   0  0  0  0  0  0  0  0  0  0  0  0
    7.3292  -12.8667    0.0000 C   0  0  0  0  0  0  0  0  0  0  0  0
    5.7542  -12.3417    0.0000 O   0  0  0  0  0  0  0  0  0  0  0  0
    7.1667  -12.0542    0.0000 C   0  0  0  0  0  0  0  0  0  0  0  0
    9.0542  -17.0000    0.0000 C   0  0  0  0  0  0  0  0  0  0  0  0
    3.8917   -9.2292    0.0000 C   0  0  0  0  0  0  0  0  0  0  0  0
    3.3167  -10.9375    0.0000 C   0  0  0  0  0  0  0  0  0  0  0  0
    6.1625  -17.2750    0.0000 C   0  0  0  0  0  0  0  0  0  0  0  0
  2  1  1  0  0  0  0
  3  2  2  0  0  0  0
  4  3  1  0  0  0  0
  5 14  1  0  0  0  0
  6  1  1  0  0  0  0
  7  1  1  0  0  0  0
  8  5  2  0  0  0  0
  9  6  2  0  0  0  0
 10  4  1  0  0  0  0
 11  7  2  0  0  0  0
 12  4  1  0  0  0  0
 13  5  1  0  0  0  0
 14 21  1  0  0  0  0
 15  8  1  0  0  0  0
 16 12  2  0  0  0  0
 17 13  1  0  0  0  0
 18 19  2  0  0  0  0
 19  6  1  0  0  0  0
 20 10  2  0  0  0  0
 21 24  1  0  0  0  0
 22  7  1  0  0  0  0
 23 21  2  0  0  0  0
 24 22  1  0  0  0  0
 25 12  1  0  0  0  0
 26 15  1  0  0  0  0
 27 17  1  0  0  0  0
 28 20  1  0  0  0  0
  9 11  1  0  0  0  0
  3 18  1  0  0  0  0
 20 16  1  0  0  0  0
 17 15  2  0  0  0  0
M  END
>  <Code> (P6247605)
P6247605

>  <Number of H-Donors> (P6247605)
1

>  <Number of H-Acceptors> (P6247605)
6

>  <Number of Rotatable bonds> (P6247605)
5

>  <CLogP> (P6247605)
1.700000000000000e+000

>  <Number of Rings> (P6247605)
4

>  <PSA> (P6247605)
1.311000000000000e+002

$$$$

  -ISIS-  11102212342D

 27 29  0  0  0  0  0  0  0  0999 V2000
    2.7042   -3.2750    0.0000 N   0  0  3  0  0  0  0  0  0  0  0  0
    1.2750   -3.2750    0.0000 C   0  0  0  0  0  0  0  0  0  0  0  0
    1.9875   -2.8625    0.0000 C   0  0  0  0  0  0  0  0  0  0  0  0
    2.7042   -4.1000    0.0000 N   0  0  0  0  0  0  0  0  0  0  0  0
    3.4250   -2.8542    0.0000 C   0  0  0  0  0  0  0  0  0  0  0  0
    0.5625   -2.8625    0.0000 C   0  0  0  0  0  0  0  0  0  0  0  0
    1.2750   -4.1000    0.0000 C   0  0  0  0  0  0  0  0  0  0  0  0
    1.9875   -4.5042    0.0000 C   0  0  0  0  0  0  0  0  0  0  0  0
    4.1417   -3.2667    0.0000 C   0  0  0  0  0  0  0  0  0  0  0  0
    1.9875   -2.0375    0.0000 O   0  0  0  0  0  0  0  0  0  0  0  0
   -0.1583   -3.2750    0.0000 C   0  0  0  0  0  0  0  0  0  0  0  0
    7.0000   -3.2667    0.0000 C   0  0  0  0  0  0  0  0  0  0  0  0
    4.1500   -4.0917    0.0000 O   0  0  0  0  0  0  0  0  0  0  0  0
    0.5625   -4.5042    0.0000 C   0  0  0  0  0  0  0  0  0  0  0  0
   -0.1583   -4.1000    0.0000 C   0  0  0  0  0  0  0  0  0  0  0  0
    7.7042   -2.8500    0.0000 C   0  0  0  0  0  0  0  0  0  0  0  0
    4.8542   -2.8542    0.0000 N   0  0  0  0  0  0  0  0  0  0  0  0
    0.5625   -2.0375    0.0000 O   0  0  0  0  0  0  0  0  0  0  0  0
   -0.8750   -2.8542    0.0000 O   0  0  0  0  0  0  0  0  0  0  0  0
    5.5667   -3.2667    0.0000 C   0  0  0  0  0  0  0  0  0  0  0  0
    6.2875   -2.8542    0.0000 C   0  0  0  0  0  0  0  0  0  0  0  0
    6.9917   -4.0917    0.0000 C   0  0  0  0  0  0  0  0  0  0  0  0
    8.4250   -3.2667    0.0000 C   0  0  0  0  0  0  0  0  0  0  0  0
   -0.1500   -1.6250    0.0000 C   0  0  0  0  0  0  0  0  0  0  0  0
   -0.8708   -2.0250    0.0000 C   0  0  0  0  0  0  0  0  0  0  0  0
    7.7042   -4.5042    0.0000 C   0  0  0  0  0  0  0  0  0  0  0  0
    8.4250   -4.0917    0.0000 C   0  0  0  0  0  0  0  0  0  0  0  0
  2  3  1  0  0  0  0
  3  1  1  0  0  0  0
  4  1  1  0  0  0  0
  5  1  1  0  0  0  0
  6  2  1  0  0  0  0
  7  8  1  0  0  0  0
  8  4  2  0  0  0  0
  9  5  1  0  0  0  0
 10  3  2  0  0  0  0
 11  6  2  0  0  0  0
 12 21  1  0  0  0  0
 13  9  2  0  0  0  0
 14  7  1  0  0  0  0
 15 14  2  0  0  0  0
 16 12  2  0  0  0  0
 17  9  1  0  0  0  0
 18  6  1  0  0  0  0
 19 11  1  0  0  0  0
 20 17  1  0  0  0  0
 21 20  1  0  0  0  0
 22 12  1  0  0  0  0
 23 16  1  0  0  0  0
 24 18  1  0  0  0  0
 25 19  1  0  0  0  0
 26 22  1  0  0  0  0
 27 26  1  0  0  0  0
  2  7  2  0  0  0  0
 11 15  1  0  0  0  0
 23 27  1  0  0  0  0
M  END
>  <Code> (P6246745)
P6246745

>  <Number of H-Donors> (P6246745)
1

>  <Number of H-Acceptors> (P6246745)
5

>  <Number of Rotatable bonds> (P6246745)
7

>  <CLogP> (P6246745)
2.400000000000000e+000

>  <Number of Rings> (P6246745)
3

>  <PSA> (P6246745)
8.019999999999999e+001

$$$$

  -ISIS-  11102212342D

 30 32  0  0  0  0  0  0  0  0999 V2000
    5.5167   -5.8542    0.0000 N   0  0  3  0  0  0  0  0  0  0  0  0
    4.0917   -5.8542    0.0000 C   0  0  0  0  0  0  0  0  0  0  0  0
    4.8042   -5.4417    0.0000 C   0  0  0  0  0  0  0  0  0  0  0  0
    5.5167   -6.6792    0.0000 N   0  0  0  0  0  0  0  0  0  0  0  0
    6.2417   -5.4417    0.0000 C   0  0  0  0  0  0  0  0  0  0  0  0
    3.3792   -5.4417    0.0000 C   0  0  0  0  0  0  0  0  0  0  0  0
    4.0917   -6.6792    0.0000 C   0  0  0  0  0  0  0  0  0  0  0  0
    6.9542   -5.8542    0.0000 C   0  0  0  0  0  0  0  0  0  0  0  0
    4.8042   -7.0917    0.0000 C   0  0  0  0  0  0  0  0  0  0  0  0
   10.5167   -5.4500    0.0000 C   0  0  0  0  0  0  0  0  0  0  0  0
    4.8042   -4.6167    0.0000 O   0  0  0  0  0  0  0  0  0  0  0  0
    2.6625   -5.8542    0.0000 C   0  0  0  0  0  0  0  0  0  0  0  0
    7.6667   -5.4417    0.0000 N   0  0  0  0  0  0  0  0  0  0  0  0
    9.0917   -5.4417    0.0000 C   0  0  3  0  0  0  0  0  0  0  0  0
    6.9500   -6.6792    0.0000 O   0  0  0  0  0  0  0  0  0  0  0  0
   11.2292   -5.8667    0.0000 O   0  0  0  0  0  0  0  0  0  0  0  0
    3.3792   -7.0917    0.0000 C   0  0  0  0  0  0  0  0  0  0  0  0
    2.6625   -6.6792    0.0000 C   0  0  0  0  0  0  0  0  0  0  0  0
    9.8042   -5.8625    0.0000 C   0  0  0  0  0  0  0  0  0  0  0  0
    8.3792   -5.8542    0.0000 C   0  0  0  0  0  0  0  0  0  0  0  0
    3.3792   -4.6167    0.0000 O   0  0  0  0  0  0  0  0  0  0  0  0
   10.5167   -4.6167    0.0000 O   0  0  0  0  0  0  0  0  0  0  0  0
    1.9417   -5.4417    0.0000 O   0  0  0  0  0  0  0  0  0  0  0  0
    8.3792   -5.0375    0.0000 C   0  0  0  0  0  0  0  0  0  0  0  0
    9.8042   -5.0375    0.0000 C   0  0  0  0  0  0  0  0  0  0  0  0
    4.0917   -4.2042    0.0000 C   0  0  0  0  0  0  0  0  0  0  0  0
    1.9375   -4.6167    0.0000 C   0  0  0  0  0  0  0  0  0  0  0  0
    8.3792   -4.2125    0.0000 C   0  0  0  0  0  0  0  0  0  0  0  0
    9.8042   -4.2125    0.0000 C   0  0  0  0  0  0  0  0  0  0  0  0
    9.0917   -3.7917    0.0000 C   0  0  0  0  0  0  0  0  0  0  0  0
  2  3  1  0  0  0  0
  3  1  1  0  0  0  0
  4  1  1  0  0  0  0
  5  1  1  0  0  0  0
  6  2  1  0  0  0  0
  7  9  1  0  0  0  0
  8  5  1  0  0  0  0
  9  4  2  0  0  0  0
 10 19  1  0  0  0  0
 11  3  2  0  0  0  0
 12  6  2  0  0  0  0
 13  8  1  0  0  0  0
 14 20  1  0  0  0  0
 15  8  2  0  0  0  0
 16 10  2  0  0  0  0
 17  7  1  0  0  0  0
 18 17  2  0  0  0  0
 19 14  1  0  0  0  0
 20 13  1  0  0  0  0
 21  6  1  0  0  0  0
 22 10  1  0  0  0  0
 23 12  1  0  0  0  0
 24 14  1  0  0  0  0
 25 14  1  0  0  0  0
 26 21  1  0  0  0  0
 27 23  1  0  0  0  0
 28 24  1  0  0  0  0
 29 25  1  0  0  0  0
 30 29  1  0  0  0  0
  7  2  2  0  0  0  0
 18 12  1  0  0  0  0
 30 28  1  0  0  0  0
M  END
>  <Code> (P6246487)
P6246487

>  <Number of H-Donors> (P6246487)
2

>  <Number of H-Acceptors> (P6246487)
7

>  <Number of Rotatable bonds> (P6246487)
8

>  <CLogP> (P6246487)
1.700000000000000e+000

>  <Number of Rings> (P6246487)
3

>  <PSA> (P6246487)
1.175000000000000e+002

$$$$

  -ISIS-  11102212342D

 29 31  0  0  0  0  0  0  0  0999 V2000
    6.2042   -5.4125    0.0000 N   0  0  3  0  0  0  0  0  0  0  0  0
    4.7750   -5.4125    0.0000 C   0  0  0  0  0  0  0  0  0  0  0  0
    5.4875   -5.0000    0.0000 C   0  0  0  0  0  0  0  0  0  0  0  0
    6.2042   -6.2375    0.0000 N   0  0  0  0  0  0  0  0  0  0  0  0
    6.9250   -5.0000    0.0000 C   0  0  0  0  0  0  0  0  0  0  0  0
    4.0625   -5.0000    0.0000 C   0  0  0  0  0  0  0  0  0  0  0  0
    7.6375   -5.4167    0.0000 C   0  0  0  0  0  0  0  0  0  0  0  0
    9.0667   -5.4167    0.0000 C   0  0  1  0  0  0  0  0  0  0  0  0
    8.3500   -5.0042    0.0000 N   0  0  0  0  0  0  0  0  0  0  0  0
    9.0667   -6.2417    0.0000 C   0  0  0  0  0  0  0  0  0  0  0  0
    4.7750   -6.2375    0.0000 C   0  0  0  0  0  0  0  0  0  0  0  0
    5.4875   -6.6500    0.0000 C   0  0  0  0  0  0  0  0  0  0  0  0
    5.4875   -4.1750    0.0000 O   0  0  0  0  0  0  0  0  0  0  0  0
    3.3417   -5.4125    0.0000 C   0  0  0  0  0  0  0  0  0  0  0  0
    7.6292   -6.2417    0.0000 O   0  0  0  0  0  0  0  0  0  0  0  0
    8.3542   -6.6542    0.0000 O   0  0  0  0  0  0  0  0  0  0  0  0
    9.7792   -5.0042    0.0000 C   0  0  0  0  0  0  0  0  0  0  0  0
    4.0625   -6.6500    0.0000 C   0  0  0  0  0  0  0  0  0  0  0  0
    3.3417   -6.2375    0.0000 C   0  0  0  0  0  0  0  0  0  0  0  0
    4.0625   -4.1750    0.0000 O   0  0  0  0  0  0  0  0  0  0  0  0
    9.7792   -6.6542    0.0000 O   0  0  0  0  0  0  0  0  0  0  0  0
    2.6250   -5.0000    0.0000 O   0  0  0  0  0  0  0  0  0  0  0  0
    9.7792   -4.1750    0.0000 C   0  0  0  0  0  0  0  0  0  0  0  0
   10.4917   -5.4167    0.0000 C   0  0  0  0  0  0  0  0  0  0  0  0
    4.7750   -3.7625    0.0000 C   0  0  0  0  0  0  0  0  0  0  0  0
    2.6250   -4.1750    0.0000 C   0  0  0  0  0  0  0  0  0  0  0  0
   11.2125   -5.0042    0.0000 C   0  0  0  0  0  0  0  0  0  0  0  0
   10.4917   -3.7625    0.0000 C   0  0  0  0  0  0  0  0  0  0  0  0
   11.2125   -4.1750    0.0000 C   0  0  0  0  0  0  0  0  0  0  0  0
  2  3  1  0  0  0  0
  3  1  1  0  0  0  0
  4  1  1  0  0  0  0
  5  1  1  0  0  0  0
  6  2  1  0  0  0  0
  7  5  1  0  0  0  0
  8  9  1  0  0  0  0
  9  7  1  0  0  0  0
 10  8  1  0  0  0  0
 11 12  1  0  0  0  0
 12  4  2  0  0  0  0
 13  3  2  0  0  0  0
 14  6  2  0  0  0  0
 15  7  2  0  0  0  0
 16 10  2  0  0  0  0
  8 17  1  6  0  0  0
 18 11  1  0  0  0  0
 19 18  2  0  0  0  0
 20  6  1  0  0  0  0
 21 10  1  0  0  0  0
 22 14  1  0  0  0  0
 23 17  1  0  0  0  0
 24 17  2  0  0  0  0
 25 20  1  0  0  0  0
 26 22  1  0  0  0  0
 27 24  1  0  0  0  0
 28 23  2  0  0  0  0
 29 27  2  0  0  0  0
 11  2  2  0  0  0  0
 19 14  1  0  0  0  0
 29 28  1  0  0  0  0
M  END
>  <Code> (P6246483)
P6246483

>  <Number of H-Donors> (P6246483)
2

>  <Number of H-Acceptors> (P6246483)
7

>  <Number of Rotatable bonds> (P6246483)
7

>  <CLogP> (P6246483)
1.300000000000000e+000

>  <Number of Rings> (P6246483)
3

>  <PSA> (P6246483)
1.175000000000000e+002

$$$$

  -ISIS-  11102212342D

 21 23  0  0  0  0  0  0  0  0999 V2000
   -1.9500   -1.1000    0.0000 C   0  0  0  0  0  0  0  0  0  0  0  0
    0.2125   -0.8292    0.0000 C   0  0  0  0  0  0  0  0  0  0  0  0
   -2.5833    0.1833    0.0000 N   0  0  3  0  0  0  0  0  0  0  0  0
   -1.2083   -0.7292    0.0000 C   0  0  0  0  0  0  0  0  0  0  0  0
    0.9375   -1.2042    0.0000 S   0  0  0  0  0  0  0  0  0  0  0  0
   -1.9208    0.6708    0.0000 N   0  0  0  0  0  0  0  0  0  0  0  0
   -0.5333   -1.1875    0.0000 N   0  0  0  0  0  0  0  0  0  0  0  0
   -2.1708    1.4583    0.0000 N   0  0  0  0  0  0  0  0  0  0  0  0
   -2.6333   -0.6292    0.0000 C   0  0  0  0  0  0  0  0  0  0  0  0
    0.3542   -0.0250    0.0000 N   0  0  0  0  0  0  0  0  0  0  0  0
   -3.0000    1.4583    0.0000 N   0  0  0  0  0  0  0  0  0  0  0  0
    1.1542    0.0875    0.0000 N   0  0  0  0  0  0  0  0  0  0  0  0
   -3.2458    0.6708    0.0000 C   0  0  0  0  0  0  0  0  0  0  0  0
    1.5167   -0.6292    0.0000 C   0  0  0  0  0  0  0  0  0  0  0  0
   -3.3833   -1.0042    0.0000 C   0  0  0  0  0  0  0  0  0  0  0  0
   -2.0083   -1.9250    0.0000 C   0  0  0  0  0  0  0  0  0  0  0  0
   -1.1500    0.0875    0.0000 O   0  0  0  0  0  0  0  0  0  0  0  0
   -2.7458   -2.2875    0.0000 C   0  0  0  0  0  0  0  0  0  0  0  0
   -3.4333   -1.8250    0.0000 C   0  0  0  0  0  0  0  0  0  0  0  0
   -2.8000   -3.1042    0.0000 F   0  0  0  0  0  0  0  0  0  0  0  0
    2.3167   -0.7625    0.0000 C   0  0  0  0  0  0  0  0  0  0  0  0
  2  7  1  0  0  0  0
  3  9  1  0  0  0  0
  4  1  1  0  0  0  0
  5  2  1  0  0  0  0
  6  3  1  0  0  0  0
  7  4  1  0  0  0  0
  8  6  2  0  0  0  0
  9  1  2  0  0  0  0
 10  2  2  0  0  0  0
 11 13  2  0  0  0  0
 12 10  1  0  0  0  0
 13  3  1  0  0  0  0
 14  5  1  0  0  0  0
 15  9  1  0  0  0  0
 16  1  1  0  0  0  0
 17  4  2  0  0  0  0
 18 16  2  0  0  0  0
 19 18  1  0  0  0  0
 20 18  1  0  0  0  0
 21 14  1  0  0  0  0
 15 19  2  0  0  0  0
  8 11  1  0  0  0  0
 14 12  2  0  0  0  0
M  END
>  <Code> (P6242479)
P6242479

>  <Number of H-Donors> (P6242479)
1

>  <Number of H-Acceptors> (P6242479)
6

>  <Number of Rotatable bonds> (P6242479)
3

>  <CLogP> (P6242479)
4.000000000000000e-001

>  <Number of Rings> (P6242479)
3

>  <PSA> (P6242479)
1.267000000000000e+002

$$$$

  -ISIS-  11102212342D

 23 25  0  0  0  0  0  0  0  0999 V2000
    3.7792    1.0000    0.0000 C   0  0  0  0  0  0  0  0  0  0  0  0
    4.5667    0.7333    0.0000 C   0  0  0  0  0  0  0  0  0  0  0  0
    3.7917    1.8125    0.0000 S   0  0  0  0  0  0  0  0  0  0  0  0
    5.0500    1.4083    0.0000 C   0  0  0  0  0  0  0  0  0  0  0  0
    4.5542    2.0708    0.0000 C   0  0  0  0  0  0  0  0  0  0  0  0
    4.7292   -0.0750    0.0000 C   0  0  0  0  0  0  0  0  0  0  0  0
    3.1667    0.4375    0.0000 N   0  0  0  0  0  0  0  0  0  0  0  0
    4.1167   -0.6167    0.0000 N   0  0  0  0  0  0  0  0  0  0  0  0
    6.6500   -2.2042    0.0000 C   0  0  0  0  0  0  0  0  0  0  0  0
    7.6667   -3.3375    0.0000 S   0  0  0  0  0  0  0  0  0  0  0  0
    3.3417   -0.3750    0.0000 C   0  0  0  0  0  0  0  0  0  0  0  0
    6.9917   -3.8167    0.0000 C   0  0  0  0  0  0  0  0  0  0  0  0
    6.0375   -2.7417    0.0000 N   0  0  0  0  0  0  0  0  0  0  0  0
    6.4750   -1.3917    0.0000 C   0  0  0  0  0  0  0  0  0  0  0  0
    8.3167   -3.8292    0.0000 C   0  0  0  0  0  0  0  0  0  0  0  0
    7.2500   -4.6042    0.0000 C   0  0  0  0  0  0  0  0  0  0  0  0
    8.0667   -4.6125    0.0000 C   0  0  0  0  0  0  0  0  0  0  0  0
    7.4375   -2.4542    0.0000 O   0  0  0  0  0  0  0  0  0  0  0  0
    5.5250   -0.3292    0.0000 S   0  0  0  0  0  0  0  0  0  0  0  0
    6.2042   -3.5542    0.0000 C   0  0  0  0  0  0  0  0  0  0  0  0
    5.6917   -1.1417    0.0000 C   0  0  0  0  0  0  0  0  0  0  0  0
    5.8917    1.4208    0.0000 C   0  0  0  0  0  0  0  0  0  0  0  0
    4.8042    2.8500    0.0000 C   0  0  0  0  0  0  0  0  0  0  0  0
  2  1  2  0  0  0  0
  3  1  1  0  0  0  0
  4  2  1  0  0  0  0
  5  3  1  0  0  0  0
  6  2  1  0  0  0  0
  7  1  1  0  0  0  0
  8 11  1  0  0  0  0
  9 14  1  0  0  0  0
 10 12  1  0  0  0  0
 11  7  2  0  0  0  0
 12 20  1  0  0  0  0
 13  9  1  0  0  0  0
 14 21  1  0  0  0  0
 15 10  1  0  0  0  0
 16 12  2  0  0  0  0
 17 16  1  0  0  0  0
 18  9  2  0  0  0  0
 19  6  1  0  0  0  0
 20 13  1  0  0  0  0
 21 19  1  0  0  0  0
 22  4  1  0  0  0  0
 23  5  1  0  0  0  0
  4  5  2  0  0  0  0
  6  8  2  0  0  0  0
 17 15  2  0  0  0  0
M  END
>  <Code> (P6241681)
P6241681

>  <Number of H-Donors> (P6241681)
1

>  <Number of H-Acceptors> (P6241681)
4

>  <Number of Rotatable bonds> (P6241681)
6

>  <CLogP> (P6241681)
3.500000000000000e+000

>  <Number of Rings> (P6241681)
3

>  <PSA> (P6241681)
1.367000000000000e+002

$$$$

  -ISIS-  11102212342D

 28 31  0  0  0  0  0  0  0  0999 V2000
    5.7750   -4.6917    0.0000 C   0  0  0  0  0  0  0  0  0  0  0  0
    5.0625   -4.2792    0.0000 C   0  0  0  0  0  0  0  0  0  0  0  0
    5.0625   -3.4542    0.0000 C   0  0  0  0  0  0  0  0  0  0  0  0
    6.4917   -4.2875    0.0000 N   0  0  0  0  0  0  0  0  0  0  0  0
    4.3500   -3.0292    0.0000 C   0  0  0  0  0  0  0  0  0  0  0  0
    4.7875   -5.5875    0.0000 N   0  0  0  0  0  0  0  0  0  0  0  0
    5.6000   -5.5000    0.0000 O   0  0  0  0  0  0  0  0  0  0  0  0
    6.4917   -3.4542    0.0000 C   0  0  0  0  0  0  0  0  0  0  0  0
    5.7750   -3.0417    0.0000 C   0  0  0  0  0  0  0  0  0  0  0  0
    4.4500   -4.8292    0.0000 C   0  0  0  0  0  0  0  0  0  0  0  0
    4.3542   -2.2042    0.0000 N   0  0  0  0  0  0  0  0  0  0  0  0
    2.9167   -0.5542    0.0000 C   0  0  0  0  0  0  0  0  0  0  0  0
    2.9167    0.2750    0.0000 C   0  0  0  0  0  0  0  0  0  0  0  0
    3.6292   -3.4417    0.0000 O   0  0  0  0  0  0  0  0  0  0  0  0
    3.6292   -1.7917    0.0000 C   0  0  0  0  0  0  0  0  0  0  0  0
    3.6292   -0.9667    0.0000 C   0  0  0  0  0  0  0  0  0  0  0  0
    7.2125   -3.0292    0.0000 C   0  0  0  0  0  0  0  0  0  0  0  0
    2.2042    0.6875    0.0000 O   0  0  0  0  0  0  0  0  0  0  0  0
    2.2167   -0.9667    0.0000 C   0  0  0  0  0  0  0  0  0  0  0  0
    3.6417   -4.6625    0.0000 C   0  0  0  0  0  0  0  0  0  0  0  0
    2.2167   -1.7917    0.0000 C   0  0  0  0  0  0  0  0  0  0  0  0
    2.9167   -2.2042    0.0000 C   0  0  0  0  0  0  0  0  0  0  0  0
    3.6417    0.6875    0.0000 C   0  0  0  0  0  0  0  0  0  0  0  0
    7.9250   -3.4417    0.0000 C   0  0  0  0  0  0  0  0  0  0  0  0
    7.2042   -2.2167    0.0000 C   0  0  0  0  0  0  0  0  0  0  0  0
    7.9167   -1.7917    0.0000 C   0  0  0  0  0  0  0  0  0  0  0  0
    8.6417   -3.0292    0.0000 C   0  0  0  0  0  0  0  0  0  0  0  0
    8.6417   -2.2042    0.0000 C   0  0  0  0  0  0  0  0  0  0  0  0
  2  1  2  0  0  0  0
  3  2  1  0  0  0  0
  4  1  1  0  0  0  0
  5  3  1  0  0  0  0
  6  7  1  0  0  0  0
  7  1  1  0  0  0  0
  8  4  2  0  0  0  0
  9  8  1  0  0  0  0
 10  2  1  0  0  0  0
 11  5  1  0  0  0  0
 12 16  1  0  0  0  0
 13 12  1  0  0  0  0
 14  5  2  0  0  0  0
 15 11  1  0  0  0  0
 16 15  2  0  0  0  0
 17  8  1  0  0  0  0
 18 13  2  0  0  0  0
 19 21  1  0  0  0  0
 20 10  1  0  0  0  0
 21 22  2  0  0  0  0
 22 15  1  0  0  0  0
 23 13  1  0  0  0  0
 24 17  2  0  0  0  0
 25 17  1  0  0  0  0
 26 25  2  0  0  0  0
 27 24  1  0  0  0  0
 28 26  1  0  0  0  0
  6 10  2  0  0  0  0
  9  3  2  0  0  0  0
 28 27  2  0  0  0  0
 19 12  2  0  0  0  0
M  END
>  <Code> (P6239917)
P6239917

>  <Number of H-Donors> (P6239917)
1

>  <Number of H-Acceptors> (P6239917)
4

>  <Number of Rotatable bonds> (P6239917)
4

>  <CLogP> (P6239917)
3.300000000000000e+000

>  <Number of Rings> (P6239917)
4

>  <PSA> (P6239917)
8.510000000000002e+001

$$$$

  -ISIS-  11102212342D

 26 29  0  0  0  0  0  0  0  0999 V2000
    5.2000    2.5625    0.0000 C   0  0  0  0  0  0  0  0  0  0  0  0
    5.2000    1.7375    0.0000 C   0  0  0  0  0  0  0  0  0  0  0  0
    4.4792    1.3250    0.0000 C   0  0  0  0  0  0  0  0  0  0  0  0
    4.4875    2.9833    0.0000 N   0  0  0  0  0  0  0  0  0  0  0  0
    4.4792    0.5000    0.0000 C   0  0  0  0  0  0  0  0  0  0  0  0
    6.4667    2.1500    0.0000 N   0  0  0  0  0  0  0  0  0  0  0  0
    5.9792    2.8208    0.0000 O   0  0  0  0  0  0  0  0  0  0  0  0
    3.7667    2.5625    0.0000 C   0  0  0  0  0  0  0  0  0  0  0  0
    3.7667    1.7375    0.0000 C   0  0  0  0  0  0  0  0  0  0  0  0
    5.9792    1.4833    0.0000 C   0  0  0  0  0  0  0  0  0  0  0  0
    3.0500    2.9833    0.0000 C   0  0  3  0  0  0  0  0  0  0  0  0
    3.7667    0.0833    0.0000 N   0  0  0  0  0  0  0  0  0  0  0  0
    3.7667   -0.7417    0.0000 C   0  0  0  0  0  0  0  0  0  0  0  0
    3.0542    3.8000    0.0000 C   0  0  0  0  0  0  0  0  0  0  0  0
    2.3375    3.3958    0.0000 C   0  0  0  0  0  0  0  0  0  0  0  0
    4.4792   -1.1542    0.0000 C   0  0  0  0  0  0  0  0  0  0  0  0
    3.0542   -1.1542    0.0000 C   0  0  0  0  0  0  0  0  0  0  0  0
    5.2000    0.0958    0.0000 O   0  0  0  0  0  0  0  0  0  0  0  0
    4.4792   -1.9792    0.0000 C   0  0  0  0  0  0  0  0  0  0  0  0
    3.0542   -1.9792    0.0000 C   0  0  0  0  0  0  0  0  0  0  0  0
    3.7667   -2.3917    0.0000 C   0  0  0  0  0  0  0  0  0  0  0  0
    5.1917   -2.3917    0.0000 O   0  0  0  0  0  0  0  0  0  0  0  0
    2.3417   -2.3917    0.0000 O   0  0  0  0  0  0  0  0  0  0  0  0
    6.2417    0.7000    0.0000 C   0  0  0  0  0  0  0  0  0  0  0  0
    5.1917   -3.2167    0.0000 C   0  0  0  0  0  0  0  0  0  0  0  0
    2.3417   -3.2167    0.0000 C   0  0  0  0  0  0  0  0  0  0  0  0
  2  1  2  0  0  0  0
  3  2  1  0  0  0  0
  4  1  1  0  0  0  0
  5  3  1  0  0  0  0
  6  7  1  0  0  0  0
  7  1  1  0  0  0  0
  8  4  2  0  0  0  0
  9  8  1  0  0  0  0
 10  2  1  0  0  0  0
 11  8  1  0  0  0  0
 12  5  1  0  0  0  0
 13 12  1  0  0  0  0
 14 11  1  0  0  0  0
 15 11  1  0  0  0  0
 16 13  1  0  0  0  0
 17 13  2  0  0  0  0
 18  5  2  0  0  0  0
 19 16  2  0  0  0  0
 20 17  1  0  0  0  0
 21 20  2  0  0  0  0
 22 19  1  0  0  0  0
 23 20  1  0  0  0  0
 24 10  1  0  0  0  0
 25 22  1  0  0  0  0
 26 23  1  0  0  0  0
 10  6  2  0  0  0  0
  9  3  2  0  0  0  0
 15 14  1  0  0  0  0
 19 21  1  0  0  0  0
M  END
>  <Code> (P6239891)
P6239891

>  <Number of H-Donors> (P6239891)
1

>  <Number of H-Acceptors> (P6239891)
5

>  <Number of Rotatable bonds> (P6239891)
5

>  <CLogP> (P6239891)
2.600000000000000e+000

>  <Number of Rings> (P6239891)
4

>  <PSA> (P6239891)
8.650000000000000e+001

$$$$

  -ISIS-  11102212342D

 30 33  0  0  0  0  0  0  0  0999 V2000
    9.9542    0.1750    0.0000 N   0  0  3  0  0  0  0  0  0  0  0  0
   10.1292    0.9750    0.0000 C   0  0  0  0  0  0  0  0  0  0  0  0
    9.2500   -0.2417    0.0000 N   0  0  0  0  0  0  0  0  0  0  0  0
   10.9375    1.0708    0.0000 N   0  0  0  0  0  0  0  0  0  0  0  0
   10.6667   -0.2292    0.0000 C   0  0  0  0  0  0  0  0  0  0  0  0
    9.2542   -1.0625    0.0000 C   0  0  0  0  0  0  0  0  0  0  0  0
   11.2792    0.3208    0.0000 N   0  0  0  0  0  0  0  0  0  0  0  0
    9.5750    1.5875    0.0000 C   0  0  3  0  0  0  0  0  0  0  0  0
    8.5417   -1.4792    0.0000 N   0  0  3  0  0  0  0  0  0  0  0  0
    6.3875   -1.0667    0.0000 C   0  0  0  0  0  0  0  0  0  0  0  0
    7.1042   -1.4792    0.0000 C   0  0  3  0  0  0  0  0  0  0  0  0
   10.6792   -1.0542    0.0000 C   0  0  0  0  0  0  0  0  0  0  0  0
    9.9792   -1.4625    0.0000 C   0  0  0  0  0  0  0  0  0  0  0  0
    7.8167   -1.0625    0.0000 C   0  0  0  0  0  0  0  0  0  0  0  0
    5.6792   -1.4667    0.0000 N   0  0  0  0  0  0  0  0  0  0  0  0
    6.3875   -0.2417    0.0000 O   0  0  0  0  0  0  0  0  0  0  0  0
    9.8250    2.3750    0.0000 F   0  0  0  0  0  0  0  0  0  0  0  0
    8.7750    1.4083    0.0000 F   0  0  0  0  0  0  0  0  0  0  0  0
   10.3042    1.9625    0.0000 F   0  0  0  0  0  0  0  0  0  0  0  0
    8.5417   -2.3042    0.0000 C   0  0  0  0  0  0  0  0  0  0  0  0
    5.6792   -2.2917    0.0000 C   0  0  3  0  0  0  0  0  0  0  0  0
    7.1042   -2.3042    0.0000 C   0  0  0  0  0  0  0  0  0  0  0  0
    7.8250   -2.7167    0.0000 C   0  0  0  0  0  0  0  0  0  0  0  0
    4.9167   -2.6125    0.0000 C   0  0  0  0  0  0  0  0  0  0  0  0
    6.4417   -2.6125    0.0000 C   0  0  0  0  0  0  0  0  0  0  0  0
    6.7542   -3.3750    0.0000 C   0  0  0  0  0  0  0  0  0  0  0  0
    4.6000   -3.3792    0.0000 C   0  0  0  0  0  0  0  0  0  0  0  0
    4.9167   -4.1292    0.0000 C   0  0  0  0  0  0  0  0  0  0  0  0
    5.6792   -4.4417    0.0000 C   0  0  0  0  0  0  0  0  0  0  0  0
    6.4417   -4.1292    0.0000 C   0  0  0  0  0  0  0  0  0  0  0  0
  2  1  1  0  0  0  0
  3  1  1  0  0  0  0
  4  2  2  0  0  0  0
  5  1  1  0  0  0  0
  6  3  2  0  0  0  0
  7  5  2  0  0  0  0
  8  2  1  0  0  0  0
  9  6  1  0  0  0  0
 10 11  1  0  0  0  0
 11 14  1  0  0  0  0
 12  5  1  0  0  0  0
 13 12  2  0  0  0  0
 14  9  1  0  0  0  0
 15 10  1  0  0  0  0
 16 10  2  0  0  0  0
 17  8  1  0  0  0  0
 18  8  1  0  0  0  0
 19  8  1  0  0  0  0
 20  9  1  0  0  0  0
 21 15  1  0  0  0  0
 22 23  1  0  0  0  0
 23 20  1  0  0  0  0
 24 21  1  0  0  0  0
 25 21  1  0  0  0  0
 26 25  1  0  0  0  0
 27 24  1  0  0  0  0
 28 27  1  0  0  0  0
 29 30  1  0  0  0  0
 30 26  1  0  0  0  0
  7  4  1  0  0  0  0
  6 13  1  0  0  0  0
 11 22  1  0  0  0  0
 28 29  1  0  0  0  0
M  END
>  <Code> (P6239294)
P6239294

>  <Number of H-Donors> (P6239294)
1

>  <Number of H-Acceptors> (P6239294)
5

>  <Number of Rotatable bonds> (P6239294)
4

>  <CLogP> (P6239294)
3.900000000000000e+000

>  <Number of Rings> (P6239294)
4

>  <PSA> (P6239294)
7.540000000000001e+001

$$$$

  -ISIS-  11102212342D

 17 19  0  0  0  0  0  0  0  0999 V2000
    6.5042   -0.2500    0.0000 N   0  0  3  0  0  0  0  0  0  0  0  0
    6.6792    0.5708    0.0000 C   0  0  0  0  0  0  0  0  0  0  0  0
    7.5042    0.6583    0.0000 N   0  0  0  0  0  0  0  0  0  0  0  0
    7.2250   -0.6667    0.0000 C   0  0  0  0  0  0  0  0  0  0  0  0
    5.7750   -0.6542    0.0000 N   0  0  0  0  0  0  0  0  0  0  0  0
    7.8417   -0.1042    0.0000 N   0  0  0  0  0  0  0  0  0  0  0  0
    6.1625    1.1583    0.0000 C   0  0  3  0  0  0  0  0  0  0  0  0
    5.7667   -1.4917    0.0000 C   0  0  0  0  0  0  0  0  0  0  0  0
    7.2167   -1.5042    0.0000 C   0  0  0  0  0  0  0  0  0  0  0  0
    6.5042   -1.9042    0.0000 C   0  0  0  0  0  0  0  0  0  0  0  0
    5.0625   -1.9000    0.0000 N   0  0  0  0  0  0  0  0  0  0  0  0
    5.0667   -2.7167    0.0000 C   0  0  3  0  0  0  0  0  0  0  0  0
    4.6542   -3.4375    0.0000 C   0  0  0  0  0  0  0  0  0  0  0  0
    5.4792   -3.4375    0.0000 C   0  0  0  0  0  0  0  0  0  0  0  0
    6.7292    1.6875    0.0000 F   0  0  0  0  0  0  0  0  0  0  0  0
    5.5875    0.6125    0.0000 F   0  0  0  0  0  0  0  0  0  0  0  0
    5.6250    1.7250    0.0000 F   0  0  0  0  0  0  0  0  0  0  0  0
  2  1  1  0  0  0  0
  3  2  2  0  0  0  0
  4  1  1  0  0  0  0
  5  1  1  0  0  0  0
  6  4  2  0  0  0  0
  7  2  1  0  0  0  0
  8  5  2  0  0  0  0
  9  4  1  0  0  0  0
 10  8  1  0  0  0  0
 11  8  1  0  0  0  0
 12 11  1  0  0  0  0
 13 12  1  0  0  0  0
 14 12  1  0  0  0  0
 15  7  1  0  0  0  0
 16  7  1  0  0  0  0
 17  7  1  0  0  0  0
  3  6  1  0  0  0  0
  9 10  2  0  0  0  0
 14 13  1  0  0  0  0
M  END
>  <Code> (P6239137)
P6239137

>  <Number of H-Donors> (P6239137)
1

>  <Number of H-Acceptors> (P6239137)
4

>  <Number of Rotatable bonds> (P6239137)
3

>  <CLogP> (P6239137)
1.600000000000000e+000

>  <Number of Rings> (P6239137)
3

>  <PSA> (P6239137)
5.509999999999999e+001

$$$$

  -ISIS-  11102212342D

 16 18  0  0  0  0  0  0  0  0999 V2000
    1.2792   -1.8042    0.0000 N   0  0  3  0  0  0  0  0  0  0  0  0
    1.9917   -2.2292    0.0000 N   0  0  0  0  0  0  0  0  0  0  0  0
    1.2750   -0.9917    0.0000 C   0  0  0  0  0  0  0  0  0  0  0  0
    0.0125   -1.4042    0.0000 N   0  0  0  0  0  0  0  0  0  0  0  0
    0.4917   -0.7292    0.0000 N   0  0  0  0  0  0  0  0  0  0  0  0
    2.7042   -1.8167    0.0000 C   0  0  0  0  0  0  0  0  0  0  0  0
    0.4917   -2.0542    0.0000 C   0  0  0  0  0  0  0  0  0  0  0  0
    2.0042   -0.5792    0.0000 C   0  0  0  0  0  0  0  0  0  0  0  0
    2.7000   -0.9917    0.0000 C   0  0  0  0  0  0  0  0  0  0  0  0
    3.4167   -2.2292    0.0000 N   0  0  0  0  0  0  0  0  0  0  0  0
    4.1250   -1.8167    0.0000 C   0  0  3  0  0  0  0  0  0  0  0  0
    4.1375   -0.9917    0.0000 C   0  0  0  0  0  0  0  0  0  0  0  0
    4.8500   -2.2167    0.0000 C   0  0  0  0  0  0  0  0  0  0  0  0
    5.5542   -1.7917    0.0000 C   0  0  0  0  0  0  0  0  0  0  0  0
    4.8417   -0.5792    0.0000 C   0  0  0  0  0  0  0  0  0  0  0  0
    5.5417   -0.9917    0.0000 C   0  0  0  0  0  0  0  0  0  0  0  0
  2  1  1  0  0  0  0
  3  1  1  0  0  0  0
  4  7  2  0  0  0  0
  5  3  2  0  0  0  0
  6  2  2  0  0  0  0
  7  1  1  0  0  0  0
  8  3  1  0  0  0  0
  9  8  2  0  0  0  0
 10  6  1  0  0  0  0
 11 10  1  0  0  0  0
 12 11  1  0  0  0  0
 13 11  1  0  0  0  0
 14 13  1  0  0  0  0
 15 12  1  0  0  0  0
 16 14  1  0  0  0  0
  4  5  1  0  0  0  0
  9  6  1  0  0  0  0
 16 15  1  0  0  0  0
M  END
>  <Code> (P6239025)
P6239025

>  <Number of H-Donors> (P6239025)
1

>  <Number of H-Acceptors> (P6239025)
4

>  <Number of Rotatable bonds> (P6239025)
2

>  <CLogP> (P6239025)
1.900000000000000e+000

>  <Number of Rings> (P6239025)
3

>  <PSA> (P6239025)
5.509999999999999e+001

$$$$

  -ISIS-  11102212342D

 20 22  0  0  0  0  0  0  0  0999 V2000
    1.0500    0.1208    0.0000 N   0  0  0  0  0  0  0  0  0  0  0  0
    0.5542    0.7875    0.0000 C   0  0  0  0  0  0  0  0  0  0  0  0
   -0.2333    0.5333    0.0000 C   0  0  0  0  0  0  0  0  0  0  0  0
   -0.2333   -0.3000    0.0000 C   0  0  0  0  0  0  0  0  0  0  0  0
    0.5542   -0.5542    0.0000 O   0  0  0  0  0  0  0  0  0  0  0  0
   -0.9458   -0.7125    0.0000 C   0  0  0  0  0  0  0  0  0  0  0  0
   -0.9458    0.9458    0.0000 C   0  0  0  0  0  0  0  0  0  0  0  0
    0.8125    1.5708    0.0000 C   0  0  0  0  0  0  0  0  0  0  0  0
   -1.6583   -0.3000    0.0000 C   0  0  0  0  0  0  0  0  0  0  0  0
    1.6167    1.7458    0.0000 C   0  0  0  0  0  0  0  0  0  0  0  0
   -1.6583    0.5250    0.0000 C   0  0  0  0  0  0  0  0  0  0  0  0
    3.2292    2.0875    0.0000 C   0  0  0  0  0  0  0  0  0  0  0  0
    4.0375    2.2583    0.0000 Cl  0  0  0  0  0  0  0  0  0  0  0  0
    1.8667    2.5250    0.0000 C   0  0  0  0  0  0  0  0  0  0  0  0
    2.1667    1.1333    0.0000 C   0  0  0  0  0  0  0  0  0  0  0  0
    2.9750    1.3000    0.0000 C   0  0  0  0  0  0  0  0  0  0  0  0
    2.6667    2.7083    0.0000 C   0  0  0  0  0  0  0  0  0  0  0  0
   -2.3750   -0.7125    0.0000 O   0  0  0  0  0  0  0  0  0  0  0  0
   -3.0875   -0.3000    0.0000 C   0  0  0  0  0  0  0  0  0  0  0  0
   -3.8083   -0.7125    0.0000 C   0  0  0  0  0  0  0  0  0  0  0  0
  2  1  2  0  0  0  0
  3  2  1  0  0  0  0
  4  5  1  0  0  0  0
  5  1  1  0  0  0  0
  6  4  2  0  0  0  0
  7  3  2  0  0  0  0
  8  2  1  0  0  0  0
  9  6  1  0  0  0  0
 10  8  1  0  0  0  0
 11  7  1  0  0  0  0
 12 16  2  0  0  0  0
 13 12  1  0  0  0  0
 14 10  1  0  0  0  0
 15 10  2  0  0  0  0
 16 15  1  0  0  0  0
 17 14  2  0  0  0  0
 18  9  1  0  0  0  0
 19 18  1  0  0  0  0
 20 19  1  0  0  0  0
  4  3  1  0  0  0  0
  9 11  2  0  0  0  0
 12 17  1  0  0  0  0
M  END
>  <Code> (P6236773)
P6236773

>  <Number of H-Donors> (P6236773)
0

>  <Number of H-Acceptors> (P6236773)
2

>  <Number of Rotatable bonds> (P6236773)
4

>  <CLogP> (P6236773)
4.500000000000000e+000

>  <Number of Rings> (P6236773)
3

>  <PSA> (P6236773)
3.530000000000000e+001

$$$$

  -ISIS-  11102212342D

 24 27  0  0  0  0  0  0  0  0999 V2000
    1.7875   -2.6000    0.0000 N   0  0  0  0  0  0  0  0  0  0  0  0
    2.6042   -2.6000    0.0000 C   0  0  0  0  0  0  0  0  0  0  0  0
    2.8625   -3.3792    0.0000 C   0  0  0  0  0  0  0  0  0  0  0  0
    3.6667   -3.5542    0.0000 N   0  0  0  0  0  0  0  0  0  0  0  0
    1.5292   -3.3792    0.0000 C   0  0  0  0  0  0  0  0  0  0  0  0
    3.9625   -2.1667    0.0000 N   0  0  0  0  0  0  0  0  0  0  0  0
    4.2167   -2.9417    0.0000 C   0  0  0  0  0  0  0  0  0  0  0  0
    2.1917   -3.8667    0.0000 O   0  0  0  0  0  0  0  0  0  0  0  0
    3.1625   -1.9917    0.0000 C   0  0  0  0  0  0  0  0  0  0  0  0
    5.0375   -3.1125    0.0000 S   0  0  0  0  0  0  0  0  0  0  0  0
    0.7292   -3.6000    0.0000 C   0  0  0  0  0  0  0  0  0  0  0  0
    2.9167   -1.1917    0.0000 N   0  0  0  0  0  0  0  0  0  0  0  0
    5.3042   -3.8917    0.0000 C   0  0  0  0  0  0  0  0  0  0  0  0
    5.8375   -5.4542    0.0000 C   0  0  0  0  0  0  0  0  0  0  0  0
    4.7625   -4.5042    0.0000 C   0  0  0  0  0  0  0  0  0  0  0  0
    6.1125   -4.0542    0.0000 C   0  0  0  0  0  0  0  0  0  0  0  0
    6.3792   -4.8292    0.0000 C   0  0  0  0  0  0  0  0  0  0  0  0
    5.0292   -5.2875    0.0000 C   0  0  0  0  0  0  0  0  0  0  0  0
    0.1417   -3.0167    0.0000 C   0  0  0  0  0  0  0  0  0  0  0  0
    0.5167   -4.4000    0.0000 C   0  0  0  0  0  0  0  0  0  0  0  0
    6.1042   -6.2417    0.0000 C   0  0  0  0  0  0  0  0  0  0  0  0
   -0.6458   -3.2292    0.0000 C   0  0  0  0  0  0  0  0  0  0  0  0
   -0.2833   -4.6167    0.0000 C   0  0  0  0  0  0  0  0  0  0  0  0
   -0.8708   -4.0375    0.0000 C   0  0  0  0  0  0  0  0  0  0  0  0
  2  1  1  0  0  0  0
  3  2  2  0  0  0  0
  4  3  1  0  0  0  0
  5  1  2  0  0  0  0
  6  9  2  0  0  0  0
  7  6  1  0  0  0  0
  8  5  1  0  0  0  0
  9  2  1  0  0  0  0
 10  7  1  0  0  0  0
 11  5  1  0  0  0  0
 12  9  1  0  0  0  0
 13 10  1  0  0  0  0
 14 17  1  0  0  0  0
 15 13  2  0  0  0  0
 16 13  1  0  0  0  0
 17 16  2  0  0  0  0
 18 15  1  0  0  0  0
 19 11  2  0  0  0  0
 20 11  1  0  0  0  0
 21 14  1  0  0  0  0
 22 19  1  0  0  0  0
 23 20  2  0  0  0  0
 24 23  1  0  0  0  0
  8  3  1  0  0  0  0
  4  7  2  0  0  0  0
 22 24  2  0  0  0  0
 18 14  2  0  0  0  0
M  END
>  <Code> (P6138899)
P6138899

>  <Number of H-Donors> (P6138899)
1

>  <Number of H-Acceptors> (P6138899)
5

>  <Number of Rotatable bonds> (P6138899)
3

>  <CLogP> (P6138899)
4.600000000000000e+000

>  <Number of Rings> (P6138899)
4

>  <PSA> (P6138899)
1.031000000000000e+002

$$$$

  -ISIS-  11102212342D

 17 18  0  0  0  0  0  0  0  0999 V2000
    1.8667    0.0125    0.0000 C   0  0  0  0  0  0  0  0  0  0  0  0
    2.6917    0.0250    0.0000 N   0  0  0  0  0  0  0  0  0  0  0  0
    1.6167   -0.7667    0.0000 C   0  0  0  0  0  0  0  0  0  0  0  0
    2.9542   -0.7667    0.0000 C   0  0  0  0  0  0  0  0  0  0  0  0
    2.2917   -1.2542    0.0000 O   0  0  0  0  0  0  0  0  0  0  0  0
    1.3792    0.6833    0.0000 C   0  0  0  0  0  0  0  0  0  0  0  0
    3.7417   -1.0167    0.0000 C   0  0  0  0  0  0  0  0  0  0  0  0
    0.8250   -1.0250    0.0000 N   0  0  0  0  0  0  0  0  0  0  0  0
    1.7167    1.4458    0.0000 O   0  0  0  0  0  0  0  0  0  0  0  0
    4.3500   -0.4625    0.0000 C   0  0  0  0  0  0  0  0  0  0  0  0
    0.5625    0.5958    0.0000 N   0  0  0  0  0  0  0  0  0  0  0  0
    0.6542   -1.8417    0.0000 N   0  0  0  0  0  0  0  0  0  0  0  0
    3.9167   -1.8250    0.0000 C   0  0  0  0  0  0  0  0  0  0  0  0
    4.1667    0.3458    0.0000 C   0  0  0  0  0  0  0  0  0  0  0  0
    5.1292   -0.7042    0.0000 C   0  0  0  0  0  0  0  0  0  0  0  0
    4.7000   -2.0750    0.0000 C   0  0  0  0  0  0  0  0  0  0  0  0
    5.3042   -1.5167    0.0000 C   0  0  0  0  0  0  0  0  0  0  0  0
  2  1  1  0  0  0  0
  3  1  2  0  0  0  0
  4  2  2  0  0  0  0
  5  3  1  0  0  0  0
  6  1  1  0  0  0  0
  7  4  1  0  0  0  0
  8  3  1  0  0  0  0
  9  6  2  0  0  0  0
 10  7  1  0  0  0  0
 11  6  1  0  0  0  0
 12  8  1  0  0  0  0
 13  7  2  0  0  0  0
 14 10  1  0  0  0  0
 15 10  2  0  0  0  0
 16 13  1  0  0  0  0
 17 16  2  0  0  0  0
  5  4  1  0  0  0  0
 15 17  1  0  0  0  0
M  END
>  <Code> (P6137857)
P6137857

>  <Number of H-Donors> (P6137857)
3

>  <Number of H-Acceptors> (P6137857)
4

>  <Number of Rotatable bonds> (P6137857)
3

>  <CLogP> (P6137857)
1.000000000000000e+000

>  <Number of Rings> (P6137857)
2

>  <PSA> (P6137857)
1.072000000000000e+002

$$$$

  -ISIS-  11102212342D

 31 35  0  0  0  0  0  0  0  0999 V2000
    8.7292   -9.6750    0.0000 N   0  0  3  0  0  0  0  0  0  0  0  0
    8.7292  -10.5000    0.0000 C   0  0  0  0  0  0  0  0  0  0  0  0
    9.4417   -9.2542    0.0000 C   0  0  0  0  0  0  0  0  0  0  0  0
    3.7167   -9.2750    0.0000 C   0  0  0  0  0  0  0  0  0  0  0  0
    3.7167   -8.4417    0.0000 C   0  0  0  0  0  0  0  0  0  0  0  0
    4.4375   -9.6875    0.0000 N   0  0  0  0  0  0  0  0  0  0  0  0
    5.1542   -8.4417    0.0000 N   0  0  0  0  0  0  0  0  0  0  0  0
    4.4375   -8.0292    0.0000 C   0  0  0  0  0  0  0  0  0  0  0  0
   10.1625   -9.6667    0.0000 C   0  0  0  0  0  0  0  0  0  0  0  0
    9.4500  -10.9042    0.0000 C   0  0  0  0  0  0  0  0  0  0  0  0
    2.9292   -9.5292    0.0000 S   0  0  0  0  0  0  0  0  0  0  0  0
    2.9292   -8.2000    0.0000 C   0  0  0  0  0  0  0  0  0  0  0  0
    5.1542   -9.2750    0.0000 C   0  0  0  0  0  0  0  0  0  0  0  0
    2.4417   -8.8667    0.0000 C   0  0  0  0  0  0  0  0  0  0  0  0
   10.1625  -10.4917    0.0000 C   0  0  0  0  0  0  0  0  0  0  0  0
    9.4417   -8.4292    0.0000 O   0  0  0  0  0  0  0  0  0  0  0  0
    8.0167  -10.9167    0.0000 O   0  0  0  0  0  0  0  0  0  0  0  0
    4.4375   -7.2000    0.0000 N   0  0  0  0  0  0  0  0  0  0  0  0
    5.8667   -9.6917    0.0000 S   0  0  0  0  0  0  0  0  0  0  0  0
   10.8667  -10.9042    0.0000 C   0  0  0  0  0  0  0  0  0  0  0  0
    8.0167   -9.2667    0.0000 C   0  0  0  0  0  0  0  0  0  0  0  0
    9.4417  -11.7250    0.0000 C   0  0  0  0  0  0  0  0  0  0  0  0
   10.8667   -9.2542    0.0000 C   0  0  0  0  0  0  0  0  0  0  0  0
    2.6667   -7.4167    0.0000 C   0  0  0  0  0  0  0  0  0  0  0  0
    1.6167   -8.8667    0.0000 C   0  0  0  0  0  0  0  0  0  0  0  0
    7.3042   -9.6792    0.0000 C   0  0  0  0  0  0  0  0  0  0  0  0
   10.1542  -12.1375    0.0000 C   0  0  0  0  0  0  0  0  0  0  0  0
   11.5792   -9.6625    0.0000 C   0  0  0  0  0  0  0  0  0  0  0  0
    6.5875   -9.2667    0.0000 C   0  0  0  0  0  0  0  0  0  0  0  0
   10.8667  -11.7250    0.0000 C   0  0  0  0  0  0  0  0  0  0  0  0
   11.5917  -10.4917    0.0000 C   0  0  0  0  0  0  0  0  0  0  0  0
  2  1  1  0  0  0  0
  3  1  1  0  0  0  0
  4  6  1  0  0  0  0
  5  8  1  0  0  0  0
  6 13  2  0  0  0  0
  7 13  1  0  0  0  0
  8  7  2  0  0  0  0
  9  3  1  0  0  0  0
 10  2  1  0  0  0  0
 11  4  1  0  0  0  0
 12  5  1  0  0  0  0
 13 19  1  0  0  0  0
 14 11  1  0  0  0  0
 15  9  2  0  0  0  0
 16  3  2  0  0  0  0
 17  2  2  0  0  0  0
 18  8  1  0  0  0  0
 19 29  1  0  0  0  0
 20 15  1  0  0  0  0
 21  1  1  0  0  0  0
 22 10  2  0  0  0  0
 23  9  1  0  0  0  0
 24 12  1  0  0  0  0
 25 14  1  0  0  0  0
 26 21  1  0  0  0  0
 27 22  1  0  0  0  0
 28 23  2  0  0  0  0
 29 26  1  0  0  0  0
 30 20  1  0  0  0  0
 31 28  1  0  0  0  0
 15 10  1  0  0  0  0
 20 31  2  0  0  0  0
 27 30  2  0  0  0  0
  4  5  2  0  0  0  0
 14 12  2  0  0  0  0
M  END
>  <Code> (P6057827)
P6057827

>  <Number of H-Donors> (P6057827)
1

>  <Number of H-Acceptors> (P6057827)
6

>  <Number of Rotatable bonds> (P6057827)
5

>  <CLogP> (P6057827)
4.300000000000000e+000

>  <Number of Rings> (P6057827)
5

>  <PSA> (P6057827)
1.427000000000000e+002

$$$$

  -ISIS-  11102212342D

 33 38  0  0  0  0  0  0  0  0999 V2000
    8.3000   -6.5875    0.0000 N   0  0  3  0  0  0  0  0  0  0  0  0
    8.3000   -7.4042    0.0000 C   0  0  0  0  0  0  0  0  0  0  0  0
    9.0042   -6.1667    0.0000 C   0  0  0  0  0  0  0  0  0  0  0  0
    3.2792   -6.1875    0.0000 C   0  0  0  0  0  0  0  0  0  0  0  0
    3.2792   -5.3542    0.0000 C   0  0  0  0  0  0  0  0  0  0  0  0
    4.0000   -6.6000    0.0000 N   0  0  0  0  0  0  0  0  0  0  0  0
    4.7167   -5.3542    0.0000 N   0  0  0  0  0  0  0  0  0  0  0  0
    4.0000   -4.9375    0.0000 C   0  0  0  0  0  0  0  0  0  0  0  0
    2.4917   -6.4417    0.0000 S   0  0  0  0  0  0  0  0  0  0  0  0
    9.7250   -6.5792    0.0000 C   0  0  0  0  0  0  0  0  0  0  0  0
    9.0042   -7.8167    0.0000 C   0  0  0  0  0  0  0  0  0  0  0  0
    2.4917   -5.1042    0.0000 C   0  0  0  0  0  0  0  0  0  0  0  0
    4.7167   -6.1875    0.0000 C   0  0  0  0  0  0  0  0  0  0  0  0
    2.0042   -5.7750    0.0000 C   0  0  0  0  0  0  0  0  0  0  0  0
    9.7167   -7.4042    0.0000 C   0  0  0  0  0  0  0  0  0  0  0  0
    9.0042   -5.3417    0.0000 O   0  0  0  0  0  0  0  0  0  0  0  0
    7.5792   -7.8167    0.0000 O   0  0  0  0  0  0  0  0  0  0  0  0
    4.0042   -4.1042    0.0000 N   0  0  0  0  0  0  0  0  0  0  0  0
    5.4292   -6.6000    0.0000 S   0  0  0  0  0  0  0  0  0  0  0  0
   10.4292   -7.8125    0.0000 C   0  0  0  0  0  0  0  0  0  0  0  0
    7.5792   -6.1792    0.0000 C   0  0  0  0  0  0  0  0  0  0  0  0
    9.0042   -8.6375    0.0000 C   0  0  0  0  0  0  0  0  0  0  0  0
   10.4292   -6.1667    0.0000 C   0  0  0  0  0  0  0  0  0  0  0  0
    2.1542   -4.3625    0.0000 C   0  0  0  0  0  0  0  0  0  0  0  0
    1.1875   -5.7000    0.0000 C   0  0  0  0  0  0  0  0  0  0  0  0
    6.8667   -6.5917    0.0000 C   0  0  0  0  0  0  0  0  0  0  0  0
    9.7167   -9.0500    0.0000 C   0  0  0  0  0  0  0  0  0  0  0  0
   11.1417   -6.5792    0.0000 C   0  0  0  0  0  0  0  0  0  0  0  0
    6.1500   -6.1792    0.0000 C   0  0  0  0  0  0  0  0  0  0  0  0
   10.4292   -8.6292    0.0000 C   0  0  0  0  0  0  0  0  0  0  0  0
   11.1500   -7.4042    0.0000 C   0  0  0  0  0  0  0  0  0  0  0  0
    1.3292   -4.2792    0.0000 C   0  0  0  0  0  0  0  0  0  0  0  0
    0.8500   -4.9417    0.0000 C   0  0  0  0  0  0  0  0  0  0  0  0
  2  1  1  0  0  0  0
  3  1  1  0  0  0  0
  4  6  1  0  0  0  0
  5  8  1  0  0  0  0
  6 13  2  0  0  0  0
  7 13  1  0  0  0  0
  8  7  2  0  0  0  0
  9  4  1  0  0  0  0
 10  3  1  0  0  0  0
 11  2  1  0  0  0  0
 12  5  1  0  0  0  0
 13 19  1  0  0  0  0
 14  9  1  0  0  0  0
 15 10  2  0  0  0  0
 16  3  2  0  0  0  0
 17  2  2  0  0  0  0
 18  8  1  0  0  0  0
 19 29  1  0  0  0  0
 20 15  1  0  0  0  0
 21  1  1  0  0  0  0
 22 11  2  0  0  0  0
 23 10  1  0  0  0  0
 24 12  1  0  0  0  0
 25 14  1  0  0  0  0
 26 21  1  0  0  0  0
 27 22  1  0  0  0  0
 28 23  2  0  0  0  0
 29 26  1  0  0  0  0
 30 20  1  0  0  0  0
 31 28  1  0  0  0  0
 32 24  1  0  0  0  0
 33 25  1  0  0  0  0
 15 11  1  0  0  0  0
 20 31  2  0  0  0  0
 27 30  2  0  0  0  0
  4  5  2  0  0  0  0
 14 12  2  0  0  0  0
 32 33  1  0  0  0  0
M  END
>  <Code> (P6057817)
P6057817

>  <Number of H-Donors> (P6057817)
1

>  <Number of H-Acceptors> (P6057817)
6

>  <Number of Rotatable bonds> (P6057817)
5

>  <CLogP> (P6057817)
5.000000000000000e+000

>  <Number of Rings> (P6057817)
6

>  <PSA> (P6057817)
1.427000000000000e+002

$$$$

  -ISIS-  11102212342D

 21 22  0  0  0  0  0  0  0  0999 V2000
    4.4292  -10.1542    0.0000 C   0  0  0  0  0  0  0  0  0  0  0  0
    4.4250   -9.3292    0.0000 C   0  0  0  0  0  0  0  0  0  0  0  0
    5.1417  -10.5667    0.0000 N   0  0  0  0  0  0  0  0  0  0  0  0
    5.8542   -9.3292    0.0000 N   0  0  0  0  0  0  0  0  0  0  0  0
    5.1417   -8.9167    0.0000 C   0  0  0  0  0  0  0  0  0  0  0  0
    5.8542  -10.1542    0.0000 C   0  0  0  0  0  0  0  0  0  0  0  0
    3.6375   -9.0792    0.0000 C   0  0  0  0  0  0  0  0  0  0  0  0
    3.6417  -10.4167    0.0000 O   0  0  0  0  0  0  0  0  0  0  0  0
    3.1542   -9.7542    0.0000 C   0  0  0  0  0  0  0  0  0  0  0  0
    6.4667  -10.6417    0.0000 S   0  0  0  0  0  0  0  0  0  0  0  0
    7.8292  -10.4292    0.0000 C   0  0  0  0  0  0  0  0  0  0  0  0
    5.1292   -8.0917    0.0000 N   0  0  0  0  0  0  0  0  0  0  0  0
    8.0167  -11.1292    0.0000 O   0  0  0  0  0  0  0  0  0  0  0  0
    7.1125  -10.1917    0.0000 C   0  0  0  0  0  0  0  0  0  0  0  0
    8.3417   -9.9125    0.0000 N   0  0  0  0  0  0  0  0  0  0  0  0
    3.4250   -8.2792    0.0000 C   0  0  0  0  0  0  0  0  0  0  0  0
    2.3500   -9.9625    0.0000 C   0  0  0  0  0  0  0  0  0  0  0  0
    8.6542   -8.7000    0.0000 C   0  0  0  0  0  0  0  0  0  0  0  0
    8.9792   -7.4875    0.0000 O   0  0  0  0  0  0  0  0  0  0  0  0
    8.1500   -9.2125    0.0000 C   0  0  0  0  0  0  0  0  0  0  0  0
    8.4667   -8.0000    0.0000 C   0  0  0  0  0  0  0  0  0  0  0  0
  2  1  2  0  0  0  0
  3  1  1  0  0  0  0
  4  6  1  0  0  0  0
  5  2  1  0  0  0  0
  6  3  2  0  0  0  0
  7  2  1  0  0  0  0
  8  1  1  0  0  0  0
  9  8  1  0  0  0  0
 10  6  1  0  0  0  0
 11 14  1  0  0  0  0
 12  5  1  0  0  0  0
 13 11  2  0  0  0  0
 14 10  1  0  0  0  0
 15 11  1  0  0  0  0
 16  7  1  0  0  0  0
 17  9  1  0  0  0  0
 18 20  1  0  0  0  0
 19 21  1  0  0  0  0
 20 15  1  0  0  0  0
 21 18  1  0  0  0  0
  7  9  2  0  0  0  0
  5  4  2  0  0  0  0
M  END
>  <Code> (P6057682)
P6057682

>  <Number of H-Donors> (P6057682)
3

>  <Number of H-Acceptors> (P6057682)
6

>  <Number of Rotatable bonds> (P6057682)
6

>  <CLogP> (P6057682)
6.000000000000000e-001

>  <Number of Rings> (P6057682)
2

>  <PSA> (P6057682)
1.396000000000000e+002

$$$$

  -ISIS-  11102212342D

 30 34  0  0  0  0  0  0  0  0999 V2000
    3.2792   -3.0792    0.0000 N   0  0  3  0  0  0  0  0  0  0  0  0
    2.8750   -3.8000    0.0000 C   0  0  0  0  0  0  0  0  0  0  0  0
    2.8667   -2.3667    0.0000 C   0  0  0  0  0  0  0  0  0  0  0  0
    2.0500   -3.8000    0.0000 C   0  0  0  0  0  0  0  0  0  0  0  0
    2.0417   -2.3750    0.0000 C   0  0  0  0  0  0  0  0  0  0  0  0
    6.7500   -2.1667    0.0000 C   0  0  0  0  0  0  0  0  0  0  0  0
    6.5792   -2.9792    0.0000 S   0  0  0  0  0  0  0  0  0  0  0  0
    6.0292   -1.7542    0.0000 N   0  0  0  0  0  0  0  0  0  0  0  0
    1.6375   -3.0917    0.0000 C   0  0  0  0  0  0  0  0  0  0  0  0
    5.4167   -2.3167    0.0000 N   0  0  0  0  0  0  0  0  0  0  0  0
    5.7625   -3.0667    0.0000 C   0  0  0  0  0  0  0  0  0  0  0  0
    7.5042   -1.8292    0.0000 N   0  0  0  0  0  0  0  0  0  0  0  0
    3.2750   -1.6500    0.0000 O   0  0  0  0  0  0  0  0  0  0  0  0
    3.2917   -4.5042    0.0000 O   0  0  0  0  0  0  0  0  0  0  0  0
    0.8167   -3.1000    0.0000 C   0  0  0  0  0  0  0  0  0  0  0  0
    4.1042   -3.0792    0.0000 C   0  0  0  0  0  0  0  0  0  0  0  0
    1.6500   -4.5042    0.0000 C   0  0  0  0  0  0  0  0  0  0  0  0
    1.6250   -1.6667    0.0000 C   0  0  0  0  0  0  0  0  0  0  0  0
    8.1750   -2.3125    0.0000 C   0  0  0  0  0  0  0  0  0  0  0  0
    5.3542   -3.7875    0.0000 C   0  0  0  0  0  0  0  0  0  0  0  0
    4.5250   -3.7917    0.0000 C   0  0  0  0  0  0  0  0  0  0  0  0
    0.8292   -4.5042    0.0000 C   0  0  0  0  0  0  0  0  0  0  0  0
    0.8000   -1.6667    0.0000 C   0  0  0  0  0  0  0  0  0  0  0  0
    0.3917   -2.3917    0.0000 C   0  0  0  0  0  0  0  0  0  0  0  0
    0.4167   -3.8042    0.0000 C   0  0  0  0  0  0  0  0  0  0  0  0
    8.0875   -3.1292    0.0000 C   0  0  0  0  0  0  0  0  0  0  0  0
    8.9167   -1.9667    0.0000 C   0  0  0  0  0  0  0  0  0  0  0  0
    9.5917   -2.4500    0.0000 C   0  0  0  0  0  0  0  0  0  0  0  0
    8.7542   -3.6167    0.0000 C   0  0  0  0  0  0  0  0  0  0  0  0
    9.5125   -3.2750    0.0000 C   0  0  0  0  0  0  0  0  0  0  0  0
  2  1  1  0  0  0  0
  3  1  1  0  0  0  0
  4  2  1  0  0  0  0
  5  3  1  0  0  0  0
  6  7  1  0  0  0  0
  7 11  1  0  0  0  0
  8 10  1  0  0  0  0
  9  5  2  0  0  0  0
 10 11  2  0  0  0  0
 11 20  1  0  0  0  0
 12  6  1  0  0  0  0
 13  3  2  0  0  0  0
 14  2  2  0  0  0  0
 15  9  1  0  0  0  0
 16  1  1  0  0  0  0
 17  4  2  0  0  0  0
 18  5  1  0  0  0  0
 19 12  1  0  0  0  0
 20 21  1  0  0  0  0
 21 16  1  0  0  0  0
 22 17  1  0  0  0  0
 23 18  2  0  0  0  0
 24 23  1  0  0  0  0
 25 15  1  0  0  0  0
 26 19  2  0  0  0  0
 27 19  1  0  0  0  0
 28 27  2  0  0  0  0
 29 26  1  0  0  0  0
 30 28  1  0  0  0  0
  9  4  1  0  0  0  0
 24 15  2  0  0  0  0
 25 22  2  0  0  0  0
  6  8  2  0  0  0  0
 29 30  2  0  0  0  0
M  END
>  <Code> (P6057651)
P6057651

>  <Number of H-Donors> (P6057651)
1

>  <Number of H-Acceptors> (P6057651)
5

>  <Number of Rotatable bonds> (P6057651)
6

>  <CLogP> (P6057651)
3.500000000000000e+000

>  <Number of Rings> (P6057651)
5

>  <PSA> (P6057651)
1.034000000000000e+002

$$$$

  -ISIS-  11102212342D

 26 30  0  0  0  0  0  0  0  0999 V2000
    0.8375   -1.0667    0.0000 N   0  0  3  0  0  0  0  0  0  0  0  0
    1.5500   -0.6542    0.0000 C   0  0  0  0  0  0  0  0  0  0  0  0
    0.1167   -0.6542    0.0000 C   0  0  0  0  0  0  0  0  0  0  0  0
    0.1167    0.1708    0.0000 C   0  0  0  0  0  0  0  0  0  0  0  0
    1.5417    0.1708    0.0000 N   0  0  3  0  0  0  0  0  0  0  0  0
    0.8292    0.5833    0.0000 C   0  0  0  0  0  0  0  0  0  0  0  0
    1.0167   -1.8792    0.0000 C   0  0  0  0  0  0  0  0  0  0  0  0
    2.1667   -1.2000    0.0000 N   0  0  0  0  0  0  0  0  0  0  0  0
   -0.6708   -0.9125    0.0000 S   0  0  0  0  0  0  0  0  0  0  0  0
    1.8375   -1.9542    0.0000 N   0  0  0  0  0  0  0  0  0  0  0  0
   -0.6625    0.4208    0.0000 C   0  0  0  0  0  0  0  0  0  0  0  0
   -1.1583   -0.2500    0.0000 C   0  0  0  0  0  0  0  0  0  0  0  0
    0.4667   -2.4917    0.0000 N   0  0  0  0  0  0  0  0  0  0  0  0
    0.8250    1.4083    0.0000 O   0  0  0  0  0  0  0  0  0  0  0  0
    2.2542    0.5875    0.0000 C   0  0  0  0  0  0  0  0  0  0  0  0
    2.8375    0.0083    0.0000 C   0  0  0  0  0  0  0  0  0  0  0  0
    3.6292   -0.2000    0.0000 C   0  0  0  0  0  0  0  0  0  0  0  0
   -0.3375   -2.3292    0.0000 C   0  0  0  0  0  0  0  0  0  0  0  0
   -1.1458    1.0958    0.0000 C   0  0  0  0  0  0  0  0  0  0  0  0
   -1.9458    0.0125    0.0000 C   0  0  0  0  0  0  0  0  0  0  0  0
   -1.9375    0.8458    0.0000 C   0  0  0  0  0  0  0  0  0  0  0  0
   -0.8833   -2.9500    0.0000 C   0  0  0  0  0  0  0  0  0  0  0  0
   -0.5958   -1.5500    0.0000 C   0  0  0  0  0  0  0  0  0  0  0  0
   -1.4083   -1.3792    0.0000 C   0  0  0  0  0  0  0  0  0  0  0  0
   -1.6833   -2.7875    0.0000 C   0  0  0  0  0  0  0  0  0  0  0  0
   -1.9500   -2.0042    0.0000 C   0  0  0  0  0  0  0  0  0  0  0  0
  2  1  1  0  0  0  0
  3  1  1  0  0  0  0
  4  3  2  0  0  0  0
  5  2  1  0  0  0  0
  6  4  1  0  0  0  0
  7  1  1  0  0  0  0
  8  2  2  0  0  0  0
  9  3  1  0  0  0  0
 10  7  2  0  0  0  0
 11  4  1  0  0  0  0
 12  9  1  0  0  0  0
 13  7  1  0  0  0  0
 14  6  2  0  0  0  0
 15  5  1  0  0  0  0
 16 15  1  0  0  0  0
 17 16  2  0  0  0  0
 18 13  1  0  0  0  0
 19 11  1  0  0  0  0
 20 12  1  0  0  0  0
 21 20  1  0  0  0  0
 22 18  1  0  0  0  0
 23 18  2  0  0  0  0
 24 23  1  0  0  0  0
 25 22  2  0  0  0  0
 26 24  2  0  0  0  0
 10  8  1  0  0  0  0
 12 11  2  0  0  0  0
  5  6  1  0  0  0  0
 19 21  1  0  0  0  0
 25 26  1  0  0  0  0
M  END
>  <Code> (P6057643)
P6057643

>  <Number of H-Donors> (P6057643)
1

>  <Number of H-Acceptors> (P6057643)
4

>  <Number of Rotatable bonds> (P6057643)
4

>  <CLogP> (P6057643)
3.500000000000000e+000

>  <Number of Rings> (P6057643)
5

>  <PSA> (P6057643)
9.129999999999998e+001

$$$$

  -ISIS-  11102212342D

 28 32  0  0  0  0  0  0  0  0999 V2000
    5.2417   -2.7792    0.0000 N   0  0  3  0  0  0  0  0  0  0  0  0
    5.9500   -2.3625    0.0000 C   0  0  0  0  0  0  0  0  0  0  0  0
    4.5167   -2.3667    0.0000 C   0  0  0  0  0  0  0  0  0  0  0  0
    4.5167   -1.5417    0.0000 C   0  0  0  0  0  0  0  0  0  0  0  0
    5.9417   -1.5375    0.0000 N   0  0  3  0  0  0  0  0  0  0  0  0
    5.2292   -1.1292    0.0000 C   0  0  0  0  0  0  0  0  0  0  0  0
    5.4167   -3.5875    0.0000 C   0  0  0  0  0  0  0  0  0  0  0  0
    6.5667   -2.9042    0.0000 N   0  0  0  0  0  0  0  0  0  0  0  0
    3.7375   -2.6167    0.0000 S   0  0  0  0  0  0  0  0  0  0  0  0
    6.2417   -3.6667    0.0000 N   0  0  0  0  0  0  0  0  0  0  0  0
    3.7375   -1.2875    0.0000 C   0  0  0  0  0  0  0  0  0  0  0  0
    3.2500   -1.9542    0.0000 C   0  0  0  0  0  0  0  0  0  0  0  0
    4.8667   -4.2042    0.0000 N   0  0  0  0  0  0  0  0  0  0  0  0
    5.2250   -0.3042    0.0000 O   0  0  0  0  0  0  0  0  0  0  0  0
    6.6542   -1.1167    0.0000 C   0  0  0  0  0  0  0  0  0  0  0  0
    7.2375   -1.7000    0.0000 C   0  0  0  0  0  0  0  0  0  0  0  0
    4.0625   -4.0417    0.0000 C   0  0  0  0  0  0  0  0  0  0  0  0
    8.0375   -1.9042    0.0000 C   0  0  0  0  0  0  0  0  0  0  0  0
    3.2542   -0.6167    0.0000 C   0  0  0  0  0  0  0  0  0  0  0  0
    2.4625   -1.6917    0.0000 C   0  0  0  0  0  0  0  0  0  0  0  0
    2.4417   -3.7125    0.0000 C   0  0  0  0  0  0  0  0  0  0  0  0
    3.5250   -4.6542    0.0000 C   0  0  0  0  0  0  0  0  0  0  0  0
    3.8042   -3.2542    0.0000 C   0  0  0  0  0  0  0  0  0  0  0  0
    3.0000   -3.0917    0.0000 C   0  0  0  0  0  0  0  0  0  0  0  0
    2.7167   -4.4917    0.0000 C   0  0  0  0  0  0  0  0  0  0  0  0
    1.6417   -3.5417    0.0000 O   0  0  0  0  0  0  0  0  0  0  0  0
    2.4667   -0.8667    0.0000 C   0  0  0  0  0  0  0  0  0  0  0  0
    1.0917   -4.1667    0.0000 C   0  0  0  0  0  0  0  0  0  0  0  0
  2  1  1  0  0  0  0
  3  1  1  0  0  0  0
  4  3  2  0  0  0  0
  5  2  1  0  0  0  0
  6  4  1  0  0  0  0
  7  1  1  0  0  0  0
  8  2  2  0  0  0  0
  9  3  1  0  0  0  0
 10  7  2  0  0  0  0
 11  4  1  0  0  0  0
 12  9  1  0  0  0  0
 13  7  1  0  0  0  0
 14  6  2  0  0  0  0
 15  5  1  0  0  0  0
 16 15  1  0  0  0  0
 17 13  1  0  0  0  0
 18 16  2  0  0  0  0
 19 11  1  0  0  0  0
 20 12  1  0  0  0  0
 21 24  2  0  0  0  0
 22 17  1  0  0  0  0
 23 17  2  0  0  0  0
 24 23  1  0  0  0  0
 25 22  2  0  0  0  0
 26 21  1  0  0  0  0
 27 20  1  0  0  0  0
 28 26  1  0  0  0  0
 10  8  1  0  0  0  0
 12 11  2  0  0  0  0
  5  6  1  0  0  0  0
 25 21  1  0  0  0  0
 19 27  1  0  0  0  0
M  END
>  <Code> (P6057642)
P6057642

>  <Number of H-Donors> (P6057642)
1

>  <Number of H-Acceptors> (P6057642)
5

>  <Number of Rotatable bonds> (P6057642)
5

>  <CLogP> (P6057642)
3.400000000000000e+000

>  <Number of Rings> (P6057642)
5

>  <PSA> (P6057642)
1.005000000000000e+002

$$$$

  -ISIS-  11102212342D

 24 27  0  0  0  0  0  0  0  0999 V2000
    6.1875    0.7708    0.0000 C   0  0  1  0  0  0  0  0  0  0  0  0
    6.1792   -0.0542    0.0000 C   0  0  2  0  0  0  0  0  0  0  0  0
    5.4542   -0.4667    0.0000 C   0  0  1  0  0  0  0  0  0  0  0  0
    4.7417   -0.0417    0.0000 C   0  0  1  0  0  0  0  0  0  0  0  0
    4.0375   -0.4625    0.0000 C   0  0  0  0  0  0  0  0  0  0  0  0
    6.9750    1.0125    0.0000 C   0  0  2  0  0  0  0  0  0  0  0  0
    6.9625   -0.3250    0.0000 C   0  0  0  0  0  0  0  0  0  0  0  0
    4.0292   -1.2875    0.0000 C   0  0  0  0  0  0  0  0  0  0  0  0
    7.4500    0.3458    0.0000 C   0  0  1  0  0  0  0  0  0  0  0  0
    5.4667    1.1875    0.0000 C   0  0  0  0  0  0  0  0  0  0  0  0
    4.7500    0.7833    0.0000 C   0  0  0  0  0  0  0  0  0  0  0  0
    5.4542   -1.2875    0.0000 C   0  0  0  0  0  0  0  0  0  0  0  0
    3.3250   -0.0542    0.0000 C   0  0  0  0  0  0  0  0  0  0  0  0
    4.7417   -1.6917    0.0000 C   0  0  0  0  0  0  0  0  0  0  0  0
    3.3250   -1.6917    0.0000 C   0  0  0  0  0  0  0  0  0  0  0  0
    2.6167   -1.2792    0.0000 C   0  0  0  0  0  0  0  0  0  0  0  0
    7.2292    1.7875    0.0000 O   0  0  0  0  0  0  0  0  0  0  0  0
    2.6167   -0.4667    0.0000 C   0  0  0  0  0  0  0  0  0  0  0  0
    6.1792    1.5833    0.0000 C   0  0  0  0  0  0  0  0  0  0  0  0
    8.2667    0.3333    0.0000 O   0  0  0  0  0  0  0  0  0  0  0  0
    1.9125   -1.6917    0.0000 O   0  0  0  0  0  0  0  0  0  0  0  0
    6.1750   -0.8750    0.0000 H   0  0  0  0  0  0  0  0  0  0  0  0
    4.7417   -0.8625    0.0000 H   0  0  0  0  0  0  0  0  0  0  0  0
    5.4542    0.3500    0.0000 H   0  0  0  0  0  0  0  0  0  0  0  0
  2  1  1  0  0  0  0
  3  2  1  0  0  0  0
  4 11  1  0  0  0  0
  5  4  1  0  0  0  0
  6  1  1  0  0  0  0
  7  2  1  0  0  0  0
  8  5  1  0  0  0  0
  9  6  1  0  0  0  0
 10  1  1  0  0  0  0
 11 10  1  0  0  0  0
 12  3  1  0  0  0  0
 13  5  2  0  0  0  0
 14 12  1  0  0  0  0
 15  8  2  0  0  0  0
 16 18  2  0  0  0  0
  6 17  1  1  0  0  0
 18 13  1  0  0  0  0
  1 19  1  1  0  0  0
  9 20  1  6  0  0  0
 21 16  1  0  0  0  0
  2 22  1  6  0  0  0
  4 23  1  6  0  0  0
  3 24  1  1  0  0  0
  7  9  1  0  0  0  0
  3  4  1  0  0  0  0
  8 14  1  0  0  0  0
 15 16  1  0  0  0  0
M  END
>  <Code> (P6057069)
P6057069

>  <Number of H-Donors> (P6057069)
3

>  <Number of H-Acceptors> (P6057069)
3

>  <Number of Rotatable bonds> (P6057069)
0

>  <CLogP> (P6057069)
2.900000000000000e+000

>  <Number of Rings> (P6057069)
4

>  <PSA> (P6057069)
6.070000000000000e+001

$$$$

  -ISIS-  11102212342D

 33 36  0  0  0  0  0  0  0  0999 V2000
    5.0000   -2.1125    0.0000 C   0  0  0  0  0  0  0  0  0  0  0  0
    3.4167   -2.1625    0.0000 C   0  0  0  0  0  0  0  0  0  0  0  0
    6.3375   -2.0792    0.0000 N   0  0  3  0  0  0  0  0  0  0  0  0
    5.2375   -1.3167    0.0000 C   0  0  0  0  0  0  0  0  0  0  0  0
    4.2167   -2.3792    0.0000 C   0  0  0  0  0  0  0  0  0  0  0  0
    6.0625   -1.3000    0.0000 C   0  0  0  0  0  0  0  0  0  0  0  0
    5.6750   -2.5792    0.0000 C   0  0  3  0  0  0  0  0  0  0  0  0
    2.2875   -1.4250    0.0000 N   0  0  0  0  0  0  0  0  0  0  0  0
    2.0667   -2.2292    0.0000 N   0  0  3  0  0  0  0  0  0  0  0  0
    3.1167   -1.3875    0.0000 C   0  0  0  0  0  0  0  0  0  0  0  0
    2.7667   -2.6875    0.0000 C   0  0  0  0  0  0  0  0  0  0  0  0
   10.3167   -0.8500    0.0000 N   0  0  0  0  0  0  0  0  0  0  0  0
    9.1125   -1.4167    0.0000 N   0  0  3  0  0  0  0  0  0  0  0  0
    9.9250   -1.5750    0.0000 C   0  0  0  0  0  0  0  0  0  0  0  0
    5.6917   -3.4042    0.0000 C   0  0  0  0  0  0  0  0  0  0  0  0
    6.5292   -0.6250    0.0000 O   0  0  0  0  0  0  0  0  0  0  0  0
    4.0625   -3.1875    0.0000 O   0  0  0  0  0  0  0  0  0  0  0  0
    9.7500   -0.2500    0.0000 C   0  0  0  0  0  0  0  0  0  0  0  0
    9.0042   -0.6000    0.0000 C   0  0  0  0  0  0  0  0  0  0  0  0
    4.7375   -0.6625    0.0000 O   0  0  0  0  0  0  0  0  0  0  0  0
    7.1250   -2.3125    0.0000 C   0  0  0  0  0  0  0  0  0  0  0  0
    4.9875   -3.8250    0.0000 C   0  0  0  0  0  0  0  0  0  0  0  0
    6.4125   -3.8000    0.0000 C   0  0  0  0  0  0  0  0  0  0  0  0
    7.7250   -1.7500    0.0000 C   0  0  0  0  0  0  0  0  0  0  0  0
    1.3000   -2.5250    0.0000 C   0  0  0  0  0  0  0  0  0  0  0  0
    5.7250   -5.0500    0.0000 C   0  0  0  0  0  0  0  0  0  0  0  0
    3.5667   -0.6917    0.0000 C   0  0  0  0  0  0  0  0  0  0  0  0
    2.8125   -3.5125    0.0000 C   0  0  0  0  0  0  0  0  0  0  0  0
    6.4292   -4.6167    0.0000 C   0  0  0  0  0  0  0  0  0  0  0  0
    5.0000   -4.6500    0.0000 C   0  0  0  0  0  0  0  0  0  0  0  0
    8.5125   -1.9875    0.0000 C   0  0  0  0  0  0  0  0  0  0  0  0
    5.7417   -5.8750    0.0000 O   0  0  0  0  0  0  0  0  0  0  0  0
    6.4625   -6.2750    0.0000 C   0  0  0  0  0  0  0  0  0  0  0  0
  2  5  1  0  0  0  0
  3  7  1  0  0  0  0
  4  1  2  0  0  0  0
  5  1  1  0  0  0  0
  6  4  1  0  0  0  0
  7  1  1  0  0  0  0
  8 10  2  0  0  0  0
  9 11  1  0  0  0  0
 10  2  1  0  0  0  0
 11  2  2  0  0  0  0
 12 14  2  0  0  0  0
 13 31  1  0  0  0  0
 14 13  1  0  0  0  0
 15  7  1  0  0  0  0
 16  6  2  0  0  0  0
 17  5  2  0  0  0  0
 18 19  2  0  0  0  0
 19 13  1  0  0  0  0
 20  4  1  0  0  0  0
 21  3  1  0  0  0  0
 22 15  2  0  0  0  0
 23 15  1  0  0  0  0
 24 21  1  0  0  0  0
 25  9  1  0  0  0  0
 26 29  1  0  0  0  0
 27 10  1  0  0  0  0
 28 11  1  0  0  0  0
 29 23  2  0  0  0  0
 30 22  1  0  0  0  0
 31 24  1  0  0  0  0
 32 26  1  0  0  0  0
 33 32  1  0  0  0  0
  3  6  1  0  0  0  0
 30 26  2  0  0  0  0
  8  9  1  0  0  0  0
 12 18  1  0  0  0  0
M  END
>  <Code> (P6053908)
P6053908

>  <Number of H-Donors> (P6053908)
1

>  <Number of H-Acceptors> (P6053908)
6

>  <Number of Rotatable bonds> (P6053908)
8

>  <CLogP> (P6053908)
1.300000000000000e+000

>  <Number of Rings> (P6053908)
4

>  <PSA> (P6053908)
1.025000000000000e+002

$$$$

  -ISIS-  11102212342D

 32 35  0  0  0  0  0  0  0  0999 V2000
    5.0667   -3.0542    0.0000 C   0  0  0  0  0  0  0  0  0  0  0  0
    3.7875   -3.9292    0.0000 C   0  0  0  0  0  0  0  0  0  0  0  0
    6.1542   -2.2667    0.0000 N   0  0  3  0  0  0  0  0  0  0  0  0
    4.8167   -2.2667    0.0000 C   0  0  0  0  0  0  0  0  0  0  0  0
    5.4792   -1.7875    0.0000 C   0  0  0  0  0  0  0  0  0  0  0  0
    4.5792   -3.7250    0.0000 C   0  0  0  0  0  0  0  0  0  0  0  0
    5.8917   -3.0542    0.0000 C   0  0  3  0  0  0  0  0  0  0  0  0
    2.4417   -3.8542    0.0000 N   0  0  0  0  0  0  0  0  0  0  0  0
    2.6542   -4.6542    0.0000 N   0  0  3  0  0  0  0  0  0  0  0  0
    3.1417   -3.4125    0.0000 C   0  0  0  0  0  0  0  0  0  0  0  0
    3.4875   -4.7042    0.0000 C   0  0  0  0  0  0  0  0  0  0  0  0
    6.9417   -2.0125    0.0000 C   0  0  0  0  0  0  0  0  0  0  0  0
    6.3792   -3.7250    0.0000 C   0  0  0  0  0  0  0  0  0  0  0  0
    7.8917   -0.9542    0.0000 N   0  0  3  0  0  0  0  0  0  0  0  0
    5.4792   -0.9625    0.0000 O   0  0  0  0  0  0  0  0  0  0  0  0
    4.9167   -4.4667    0.0000 O   0  0  0  0  0  0  0  0  0  0  0  0
    4.0292   -2.0125    0.0000 O   0  0  0  0  0  0  0  0  0  0  0  0
    7.1042   -1.2125    0.0000 C   0  0  0  0  0  0  0  0  0  0  0  0
    9.4625   -0.4625    0.0000 O   0  0  0  0  0  0  0  0  0  0  0  0
    6.0417   -4.4667    0.0000 C   0  0  0  0  0  0  0  0  0  0  0  0
    7.1917   -3.6375    0.0000 C   0  0  0  0  0  0  0  0  0  0  0  0
    2.1292   -5.3042    0.0000 C   0  0  0  0  0  0  0  0  0  0  0  0
    7.3417   -5.0542    0.0000 C   0  0  0  0  0  0  0  0  0  0  0  0
    3.1875   -2.5875    0.0000 C   0  0  0  0  0  0  0  0  0  0  0  0
    3.9292   -5.3917    0.0000 C   0  0  0  0  0  0  0  0  0  0  0  0
    7.6792   -4.2917    0.0000 C   0  0  0  0  0  0  0  0  0  0  0  0
    6.5167   -5.1292    0.0000 C   0  0  0  0  0  0  0  0  0  0  0  0
    7.8250   -5.7167    0.0000 Cl  0  0  0  0  0  0  0  0  0  0  0  0
    8.0625   -0.1542    0.0000 C   0  0  0  0  0  0  0  0  0  0  0  0
    8.5042   -1.5125    0.0000 C   0  0  0  0  0  0  0  0  0  0  0  0
    9.2875   -1.2625    0.0000 C   0  0  0  0  0  0  0  0  0  0  0  0
    8.8500    0.0958    0.0000 C   0  0  0  0  0  0  0  0  0  0  0  0
  2  6  1  0  0  0  0
  3  7  1  0  0  0  0
  4  1  2  0  0  0  0
  5  4  1  0  0  0  0
  6  1  1  0  0  0  0
  7  1  1  0  0  0  0
  8 10  2  0  0  0  0
  9 11  1  0  0  0  0
 10  2  1  0  0  0  0
 11  2  2  0  0  0  0
 12  3  1  0  0  0  0
 13  7  1  0  0  0  0
 14 18  1  0  0  0  0
 15  5  2  0  0  0  0
 16  6  2  0  0  0  0
 17  4  1  0  0  0  0
 18 12  1  0  0  0  0
 19 31  1  0  0  0  0
 20 13  2  0  0  0  0
 21 13  1  0  0  0  0
 22  9  1  0  0  0  0
 23 26  1  0  0  0  0
 24 10  1  0  0  0  0
 25 11  1  0  0  0  0
 26 21  2  0  0  0  0
 27 20  1  0  0  0  0
 28 23  1  0  0  0  0
 29 14  1  0  0  0  0
 30 14  1  0  0  0  0
 31 30  1  0  0  0  0
 32 29  1  0  0  0  0
  3  5  1  0  0  0  0
 27 23  2  0  0  0  0
  8  9  1  0  0  0  0
 32 19  1  0  0  0  0
M  END
>  <Code> (P6053490)
P6053490

>  <Number of H-Donors> (P6053490)
1

>  <Number of H-Acceptors> (P6053490)
6

>  <Number of Rotatable bonds> (P6053490)
6

>  <CLogP> (P6053490)
2.000000000000000e+000

>  <Number of Rings> (P6053490)
4

>  <PSA> (P6053490)
8.790000000000001e+001

$$$$

  -ISIS-  11102212342D

 33 36  0  0  0  0  0  0  0  0999 V2000
    5.5750   -2.9375    0.0000 C   0  0  0  0  0  0  0  0  0  0  0  0
    4.2917   -3.8167    0.0000 C   0  0  0  0  0  0  0  0  0  0  0  0
    6.6542   -2.1500    0.0000 N   0  0  3  0  0  0  0  0  0  0  0  0
    5.3250   -2.1500    0.0000 C   0  0  0  0  0  0  0  0  0  0  0  0
    5.9875   -1.6667    0.0000 C   0  0  0  0  0  0  0  0  0  0  0  0
    5.0917   -3.6042    0.0000 C   0  0  0  0  0  0  0  0  0  0  0  0
    6.4000   -2.9375    0.0000 C   0  0  3  0  0  0  0  0  0  0  0  0
    2.9417   -3.7417    0.0000 N   0  0  0  0  0  0  0  0  0  0  0  0
    3.1542   -4.5417    0.0000 N   0  0  3  0  0  0  0  0  0  0  0  0
    3.6417   -3.2917    0.0000 C   0  0  0  0  0  0  0  0  0  0  0  0
    3.9875   -4.5917    0.0000 C   0  0  0  0  0  0  0  0  0  0  0  0
    7.4417   -1.8917    0.0000 C   0  0  0  0  0  0  0  0  0  0  0  0
    6.8875   -3.6042    0.0000 C   0  0  0  0  0  0  0  0  0  0  0  0
    8.4000   -0.8375    0.0000 N   0  0  3  0  0  0  0  0  0  0  0  0
    5.9875   -0.8417    0.0000 O   0  0  0  0  0  0  0  0  0  0  0  0
    5.4250   -4.3542    0.0000 O   0  0  0  0  0  0  0  0  0  0  0  0
    4.5417   -1.8917    0.0000 O   0  0  0  0  0  0  0  0  0  0  0  0
    7.6167   -1.0917    0.0000 C   0  0  0  0  0  0  0  0  0  0  0  0
    9.9667   -0.3417    0.0000 O   0  0  0  0  0  0  0  0  0  0  0  0
    6.5417   -4.3542    0.0000 C   0  0  0  0  0  0  0  0  0  0  0  0
    7.7000   -3.5167    0.0000 C   0  0  0  0  0  0  0  0  0  0  0  0
    2.6375   -5.1875    0.0000 C   0  0  0  0  0  0  0  0  0  0  0  0
    7.8500   -4.9375    0.0000 C   0  0  0  0  0  0  0  0  0  0  0  0
    3.6875   -2.4667    0.0000 C   0  0  0  0  0  0  0  0  0  0  0  0
    4.4292   -5.2792    0.0000 C   0  0  0  0  0  0  0  0  0  0  0  0
    8.1875   -4.1792    0.0000 C   0  0  0  0  0  0  0  0  0  0  0  0
    7.0292   -5.0167    0.0000 C   0  0  0  0  0  0  0  0  0  0  0  0
    8.3292   -5.6000    0.0000 O   0  0  0  0  0  0  0  0  0  0  0  0
    8.5667   -0.0292    0.0000 C   0  0  0  0  0  0  0  0  0  0  0  0
    9.0125   -1.3917    0.0000 C   0  0  0  0  0  0  0  0  0  0  0  0
    9.7917   -1.1417    0.0000 C   0  0  0  0  0  0  0  0  0  0  0  0
    9.3542    0.2208    0.0000 C   0  0  0  0  0  0  0  0  0  0  0  0
    9.1542   -5.5167    0.0000 C   0  0  0  0  0  0  0  0  0  0  0  0
  2  6  1  0  0  0  0
  3  7  1  0  0  0  0
  4  1  2  0  0  0  0
  5  4  1  0  0  0  0
  6  1  1  0  0  0  0
  7  1  1  0  0  0  0
  8 10  2  0  0  0  0
  9 11  1  0  0  0  0
 10  2  1  0  0  0  0
 11  2  2  0  0  0  0
 12  3  1  0  0  0  0
 13  7  1  0  0  0  0
 14 18  1  0  0  0  0
 15  5  2  0  0  0  0
 16  6  2  0  0  0  0
 17  4  1  0  0  0  0
 18 12  1  0  0  0  0
 19 31  1  0  0  0  0
 20 13  2  0  0  0  0
 21 13  1  0  0  0  0
 22  9  1  0  0  0  0
 23 26  1  0  0  0  0
 24 10  1  0  0  0  0
 25 11  1  0  0  0  0
 26 21  2  0  0  0  0
 27 20  1  0  0  0  0
 28 23  1  0  0  0  0
 29 14  1  0  0  0  0
 30 14  1  0  0  0  0
 31 30  1  0  0  0  0
 32 29  1  0  0  0  0
 33 28  1  0  0  0  0
  3  5  1  0  0  0  0
 27 23  2  0  0  0  0
  8  9  1  0  0  0  0
 32 19  1  0  0  0  0
M  END
>  <Code> (P6053482)
P6053482

>  <Number of H-Donors> (P6053482)
1

>  <Number of H-Acceptors> (P6053482)
7

>  <Number of Rotatable bonds> (P6053482)
7

>  <CLogP> (P6053482)
1.300000000000000e+000

>  <Number of Rings> (P6053482)
4

>  <PSA> (P6053482)
9.710000000000001e+001

$$$$

  -ISIS-  11102212342D

 33 35  0  0  0  0  0  0  0  0999 V2000
    5.4000   -3.2125    0.0000 C   0  0  0  0  0  0  0  0  0  0  0  0
    4.1167   -4.0917    0.0000 C   0  0  0  0  0  0  0  0  0  0  0  0
    6.4792   -2.4250    0.0000 N   0  0  3  0  0  0  0  0  0  0  0  0
    6.2250   -3.2125    0.0000 C   0  0  3  0  0  0  0  0  0  0  0  0
    5.1500   -2.4250    0.0000 C   0  0  0  0  0  0  0  0  0  0  0  0
    4.9167   -3.8792    0.0000 C   0  0  0  0  0  0  0  0  0  0  0  0
    5.8125   -1.9417    0.0000 C   0  0  0  0  0  0  0  0  0  0  0  0
    2.7667   -4.0167    0.0000 N   0  0  0  0  0  0  0  0  0  0  0  0
    2.9792   -4.8167    0.0000 N   0  0  3  0  0  0  0  0  0  0  0  0
    3.4667   -3.5667    0.0000 C   0  0  0  0  0  0  0  0  0  0  0  0
    6.7125   -3.8792    0.0000 C   0  0  0  0  0  0  0  0  0  0  0  0
    3.8125   -4.8667    0.0000 C   0  0  0  0  0  0  0  0  0  0  0  0
    7.5250   -3.7917    0.0000 C   0  0  0  0  0  0  0  0  0  0  0  0
    5.8125   -1.1167    0.0000 O   0  0  0  0  0  0  0  0  0  0  0  0
    5.2500   -4.6292    0.0000 O   0  0  0  0  0  0  0  0  0  0  0  0
    8.0125   -4.4542    0.0000 C   0  0  0  0  0  0  0  0  0  0  0  0
    4.3667   -2.1667    0.0000 O   0  0  0  0  0  0  0  0  0  0  0  0
    7.2667   -2.1667    0.0000 C   0  0  0  0  0  0  0  0  0  0  0  0
    7.4417   -1.3667    0.0000 C   0  0  0  0  0  0  0  0  0  0  0  0
    6.3667   -4.6292    0.0000 C   0  0  0  0  0  0  0  0  0  0  0  0
    7.8542   -3.0417    0.0000 O   0  0  0  0  0  0  0  0  0  0  0  0
    2.4625   -5.4625    0.0000 C   0  0  0  0  0  0  0  0  0  0  0  0
    8.4000   -0.3042    0.0000 N   0  0  3  0  0  0  0  0  0  0  0  0
    3.5125   -2.7417    0.0000 C   0  0  0  0  0  0  0  0  0  0  0  0
    4.2542   -5.5542    0.0000 C   0  0  0  0  0  0  0  0  0  0  0  0
    8.8292   -4.3667    0.0000 O   0  0  0  0  0  0  0  0  0  0  0  0
    8.2250   -1.1125    0.0000 C   0  0  0  0  0  0  0  0  0  0  0  0
    6.8542   -5.2917    0.0000 C   0  0  0  0  0  0  0  0  0  0  0  0
    7.6750   -5.2125    0.0000 C   0  0  0  0  0  0  0  0  0  0  0  0
    9.1792   -0.0500    0.0000 C   0  0  0  0  0  0  0  0  0  0  0  0
    7.7875    0.2458    0.0000 C   0  0  0  0  0  0  0  0  0  0  0  0
    8.6542   -2.8250    0.0000 C   0  0  0  0  0  0  0  0  0  0  0  0
    9.1625   -3.6125    0.0000 C   0  0  0  0  0  0  0  0  0  0  0  0
  2  6  1  0  0  0  0
  3  4  1  0  0  0  0
  4  1  1  0  0  0  0
  5  1  2  0  0  0  0
  6  1  1  0  0  0  0
  7  5  1  0  0  0  0
  8 10  2  0  0  0  0
  9 12  1  0  0  0  0
 10  2  1  0  0  0  0
 11  4  1  0  0  0  0
 12  2  2  0  0  0  0
 13 11  1  0  0  0  0
 14  7  2  0  0  0  0
 15  6  2  0  0  0  0
 16 13  2  0  0  0  0
 17  5  1  0  0  0  0
 18  3  1  0  0  0  0
 19 18  1  0  0  0  0
 20 11  2  0  0  0  0
 21 13  1  0  0  0  0
 22  9  1  0  0  0  0
 23 27  1  0  0  0  0
 24 10  1  0  0  0  0
 25 12  1  0  0  0  0
 26 16  1  0  0  0  0
 27 19  1  0  0  0  0
 28 20  1  0  0  0  0
 29 28  2  0  0  0  0
 30 23  1  0  0  0  0
 31 23  1  0  0  0  0
 32 21  1  0  0  0  0
 33 26  1  0  0  0  0
  3  7  1  0  0  0  0
  8  9  1  0  0  0  0
 16 29  1  0  0  0  0
M  END
>  <Code> (P6053449)
P6053449

>  <Number of H-Donors> (P6053449)
1

>  <Number of H-Acceptors> (P6053449)
7

>  <Number of Rotatable bonds> (P6053449)
9

>  <CLogP> (P6053449)
1.600000000000000e+000

>  <Number of Rings> (P6053449)
3

>  <PSA> (P6053449)
9.710000000000001e+001

$$$$

  -ISIS-  11102212342D

 31 33  0  0  0  0  0  0  0  0999 V2000
    5.5750   -2.9375    0.0000 C   0  0  0  0  0  0  0  0  0  0  0  0
    4.2917   -3.8167    0.0000 C   0  0  0  0  0  0  0  0  0  0  0  0
    6.6542   -2.1500    0.0000 N   0  0  3  0  0  0  0  0  0  0  0  0
    5.3250   -2.1500    0.0000 C   0  0  0  0  0  0  0  0  0  0  0  0
    5.9875   -1.6667    0.0000 C   0  0  0  0  0  0  0  0  0  0  0  0
    5.0917   -3.6042    0.0000 C   0  0  0  0  0  0  0  0  0  0  0  0
    6.4000   -2.9375    0.0000 C   0  0  3  0  0  0  0  0  0  0  0  0
    2.9417   -3.7417    0.0000 N   0  0  0  0  0  0  0  0  0  0  0  0
    3.1542   -4.5417    0.0000 N   0  0  3  0  0  0  0  0  0  0  0  0
    3.6417   -3.2917    0.0000 C   0  0  0  0  0  0  0  0  0  0  0  0
    3.9875   -4.5917    0.0000 C   0  0  0  0  0  0  0  0  0  0  0  0
    7.4417   -1.8917    0.0000 C   0  0  0  0  0  0  0  0  0  0  0  0
    6.8875   -3.6042    0.0000 C   0  0  0  0  0  0  0  0  0  0  0  0
    5.9875   -0.8417    0.0000 O   0  0  0  0  0  0  0  0  0  0  0  0
    5.4250   -4.3542    0.0000 O   0  0  0  0  0  0  0  0  0  0  0  0
    7.8500   -4.9375    0.0000 C   0  0  0  0  0  0  0  0  0  0  0  0
    4.5417   -1.8917    0.0000 O   0  0  0  0  0  0  0  0  0  0  0  0
    6.5417   -4.3542    0.0000 C   0  0  0  0  0  0  0  0  0  0  0  0
    7.7000   -3.5167    0.0000 C   0  0  0  0  0  0  0  0  0  0  0  0
    8.1875   -4.1792    0.0000 C   0  0  0  0  0  0  0  0  0  0  0  0
    7.0292   -5.0167    0.0000 C   0  0  0  0  0  0  0  0  0  0  0  0
    7.6167   -1.0917    0.0000 C   0  0  0  0  0  0  0  0  0  0  0  0
    8.4000   -0.8375    0.0000 N   0  0  3  0  0  0  0  0  0  0  0  0
    2.6375   -5.1875    0.0000 C   0  0  0  0  0  0  0  0  0  0  0  0
    8.3375   -5.6042    0.0000 C   0  0  3  0  0  0  0  0  0  0  0  0
    3.6875   -2.4667    0.0000 C   0  0  0  0  0  0  0  0  0  0  0  0
    4.4292   -5.2792    0.0000 C   0  0  0  0  0  0  0  0  0  0  0  0
    9.0125   -1.3917    0.0000 C   0  0  0  0  0  0  0  0  0  0  0  0
    8.5750   -0.0292    0.0000 C   0  0  0  0  0  0  0  0  0  0  0  0
    8.0000   -6.3542    0.0000 C   0  0  0  0  0  0  0  0  0  0  0  0
    9.1542   -5.5167    0.0000 C   0  0  0  0  0  0  0  0  0  0  0  0
  2  6  1  0  0  0  0
  3  7  1  0  0  0  0
  4  1  2  0  0  0  0
  5  4  1  0  0  0  0
  6  1  1  0  0  0  0
  7  1  1  0  0  0  0
  8 10  2  0  0  0  0
  9 11  1  0  0  0  0
 10  2  1  0  0  0  0
 11  2  2  0  0  0  0
 12  3  1  0  0  0  0
 13  7  1  0  0  0  0
 14  5  2  0  0  0  0
 15  6  2  0  0  0  0
 16 20  1  0  0  0  0
 17  4  1  0  0  0  0
 18 13  2  0  0  0  0
 19 13  1  0  0  0  0
 20 19  2  0  0  0  0
 21 18  1  0  0  0  0
 22 12  1  0  0  0  0
 23 22  1  0  0  0  0
 24  9  1  0  0  0  0
 25 16  1  0  0  0  0
 26 10  1  0  0  0  0
 27 11  1  0  0  0  0
 28 23  1  0  0  0  0
 29 23  1  0  0  0  0
 30 25  1  0  0  0  0
 31 25  1  0  0  0  0
  3  5  1  0  0  0  0
 21 16  2  0  0  0  0
  8  9  1  0  0  0  0
M  END
>  <Code> (P6053446)
P6053446

>  <Number of H-Donors> (P6053446)
1

>  <Number of H-Acceptors> (P6053446)
5

>  <Number of Rotatable bonds> (P6053446)
7

>  <CLogP> (P6053446)
2.800000000000000e+000

>  <Number of Rings> (P6053446)
3

>  <PSA> (P6053446)
7.870000000000000e+001

$$$$

  -ISIS-  11102212342D

 31 34  0  0  0  0  0  0  0  0999 V2000
    3.6292   -2.6750    0.0000 C   0  0  0  0  0  0  0  0  0  0  0  0
    2.3500   -3.5417    0.0000 C   0  0  0  0  0  0  0  0  0  0  0  0
    4.7167   -1.8875    0.0000 N   0  0  3  0  0  0  0  0  0  0  0  0
    3.3792   -1.8875    0.0000 C   0  0  0  0  0  0  0  0  0  0  0  0
    4.0417   -1.4000    0.0000 C   0  0  0  0  0  0  0  0  0  0  0  0
    3.1500   -3.3292    0.0000 C   0  0  0  0  0  0  0  0  0  0  0  0
    4.4542   -2.6750    0.0000 C   0  0  3  0  0  0  0  0  0  0  0  0
    1.0042   -3.4792    0.0000 N   0  0  0  0  0  0  0  0  0  0  0  0
    1.2167   -4.2792    0.0000 N   0  0  3  0  0  0  0  0  0  0  0  0
    1.7042   -3.0292    0.0000 C   0  0  0  0  0  0  0  0  0  0  0  0
    2.0500   -4.3167    0.0000 C   0  0  0  0  0  0  0  0  0  0  0  0
    5.5042   -1.6292    0.0000 C   0  0  0  0  0  0  0  0  0  0  0  0
    4.9417   -3.3292    0.0000 C   0  0  0  0  0  0  0  0  0  0  0  0
    4.0417   -0.5750    0.0000 O   0  0  0  0  0  0  0  0  0  0  0  0
    3.4792   -4.0917    0.0000 O   0  0  0  0  0  0  0  0  0  0  0  0
    2.6000   -1.6292    0.0000 O   0  0  0  0  0  0  0  0  0  0  0  0
    6.6292    0.2208    0.0000 N   0  0  0  0  0  0  0  0  0  0  0  0
    5.6667   -0.8250    0.0000 C   0  0  0  0  0  0  0  0  0  0  0  0
    4.6042   -4.0792    0.0000 C   0  0  0  0  0  0  0  0  0  0  0  0
    5.7542   -3.2500    0.0000 C   0  0  0  0  0  0  0  0  0  0  0  0
    0.7000   -4.9167    0.0000 C   0  0  0  0  0  0  0  0  0  0  0  0
    5.9042   -4.6667    0.0000 C   0  0  0  0  0  0  0  0  0  0  0  0
    1.7500   -2.2042    0.0000 C   0  0  0  0  0  0  0  0  0  0  0  0
    2.4917   -5.0167    0.0000 C   0  0  0  0  0  0  0  0  0  0  0  0
    5.0792   -4.7542    0.0000 C   0  0  0  0  0  0  0  0  0  0  0  0
    6.2417   -3.9042    0.0000 C   0  0  0  0  0  0  0  0  0  0  0  0
    6.3917   -5.3417    0.0000 F   0  0  0  0  0  0  0  0  0  0  0  0
    6.4542   -0.5750    0.0000 C   0  0  0  0  0  0  0  0  0  0  0  0
    6.0167    0.7750    0.0000 C   0  0  0  0  0  0  0  0  0  0  0  0
    5.0542   -0.2792    0.0000 C   0  0  0  0  0  0  0  0  0  0  0  0
    5.2292    0.5208    0.0000 C   0  0  0  0  0  0  0  0  0  0  0  0
  2  6  1  0  0  0  0
  3  7  1  0  0  0  0
  4  1  2  0  0  0  0
  5  4  1  0  0  0  0
  6  1  1  0  0  0  0
  7  1  1  0  0  0  0
  8 10  2  0  0  0  0
  9 11  1  0  0  0  0
 10  2  1  0  0  0  0
 11  2  2  0  0  0  0
 12  3  1  0  0  0  0
 13  7  1  0  0  0  0
 14  5  2  0  0  0  0
 15  6  2  0  0  0  0
 16  4  1  0  0  0  0
 17 28  1  0  0  0  0
 18 12  1  0  0  0  0
 19 13  2  0  0  0  0
 20 13  1  0  0  0  0
 21  9  1  0  0  0  0
 22 26  1  0  0  0  0
 23 10  1  0  0  0  0
 24 11  1  0  0  0  0
 25 19  1  0  0  0  0
 26 20  2  0  0  0  0
 27 22  1  0  0  0  0
 28 18  2  0  0  0  0
 29 31  1  0  0  0  0
 30 18  1  0  0  0  0
 31 30  2  0  0  0  0
  3  5  1  0  0  0  0
 25 22  2  0  0  0  0
  8  9  1  0  0  0  0
 17 29  2  0  0  0  0
M  END
>  <Code> (P6053142)
P6053142

>  <Number of H-Donors> (P6053142)
1

>  <Number of H-Acceptors> (P6053142)
5

>  <Number of Rotatable bonds> (P6053142)
5

>  <CLogP> (P6053142)
2.100000000000000e+000

>  <Number of Rings> (P6053142)
4

>  <PSA> (P6053142)
8.830000000000000e+001

$$$$

  -ISIS-  11102212342D

 20 22  0  0  0  0  0  0  0  0999 V2000
    1.0292   -3.0875    0.0000 N   0  3  0  0  0  0  0  0  0  0  0  0
    4.6042   -2.6750    0.0000 N   0  0  3  0  0  0  0  0  0  0  0  0
    1.7417   -2.6750    0.0000 C   0  0  0  0  0  0  0  0  0  0  0  0
    3.1667   -2.6667    0.0000 C   0  0  0  0  0  0  0  0  0  0  0  0
    2.4542   -3.0875    0.0000 C   0  0  0  0  0  0  0  0  0  0  0  0
    3.8875   -3.0875    0.0000 C   0  0  0  0  0  0  0  0  0  0  0  0
    0.3125   -2.6792    0.0000 O   0  5  0  0  0  0  0  0  0  0  0  0
    3.1750   -1.8417    0.0000 C   0  0  0  0  0  0  0  0  0  0  0  0
    1.0292   -3.9167    0.0000 O   0  0  0  0  0  0  0  0  0  0  0  0
    1.7417   -1.8500    0.0000 C   0  0  0  0  0  0  0  0  0  0  0  0
    5.3167   -3.0875    0.0000 C   0  0  0  0  0  0  0  0  0  0  0  0
    2.4542   -1.4292    0.0000 C   0  0  0  0  0  0  0  0  0  0  0  0
    3.8875   -1.4292    0.0000 C   0  0  0  0  0  0  0  0  0  0  0  0
    4.6042   -1.8417    0.0000 C   0  0  0  0  0  0  0  0  0  0  0  0
    5.3167   -3.9125    0.0000 C   0  0  0  0  0  0  0  0  0  0  0  0
    6.0292   -4.3167    0.0000 C   0  0  0  0  0  0  0  0  0  0  0  0
    4.6000   -4.3167    0.0000 C   0  0  0  0  0  0  0  0  0  0  0  0
    4.5917   -5.1417    0.0000 C   0  0  0  0  0  0  0  0  0  0  0  0
    6.0292   -5.1417    0.0000 C   0  0  0  0  0  0  0  0  0  0  0  0
    5.3125   -5.5542    0.0000 C   0  0  0  0  0  0  0  0  0  0  0  0
  2  6  1  0  0  0  0
  3  1  1  0  0  0  0
  4  5  2  0  0  0  0
  5  3  1  0  0  0  0
  6  4  1  0  0  0  0
  7  1  1  0  0  0  0
  8 12  2  0  0  0  0
  9  1  2  0  0  0  0
 10  3  2  0  0  0  0
 11  2  1  0  0  0  0
 12 10  1  0  0  0  0
 13  8  1  0  0  0  0
 14 13  1  0  0  0  0
 15 11  1  0  0  0  0
 16 15  1  0  0  0  0
 17 15  2  0  0  0  0
 18 17  1  0  0  0  0
 19 16  2  0  0  0  0
 20 18  2  0  0  0  0
  4  8  1  0  0  0  0
 14  2  1  0  0  0  0
 20 19  1  0  0  0  0
M  CHG  2   1   1   7  -1
M  END
>  <Code> (P5980482)
P5980482

>  <Number of H-Donors> (P5980482)
0

>  <Number of H-Acceptors> (P5980482)
3

>  <Number of Rotatable bonds> (P5980482)
3

>  <CLogP> (P5980482)
3.500000000000000e+000

>  <Number of Rings> (P5980482)
3

>  <PSA> (P5980482)
4.910000000000000e+001

$$$$

  -ISIS-  11102212342D

 20 20  0  0  0  0  0  0  0  0999 V2000
    7.0292  -10.9542    0.0000 C   0  0  0  0  0  0  0  0  0  0  0  0
    7.7500  -11.3667    0.0000 N   0  0  0  0  0  0  0  0  0  0  0  0
    4.1750   -8.4792    0.0000 C   0  0  3  0  0  0  0  0  0  0  0  0
    6.3167  -11.3667    0.0000 N   0  0  0  0  0  0  0  0  0  0  0  0
    7.7500  -12.2000    0.0000 C   0  0  0  0  0  0  0  0  0  0  0  0
    7.0292  -12.6125    0.0000 C   0  0  0  0  0  0  0  0  0  0  0  0
    7.0292  -10.1292    0.0000 N   0  0  0  0  0  0  0  0  0  0  0  0
    4.8875   -8.8917    0.0000 C   0  0  0  0  0  0  0  0  0  0  0  0
    6.3167  -12.2000    0.0000 C   0  0  0  0  0  0  0  0  0  0  0  0
    4.5875   -7.7667    0.0000 F   0  0  0  0  0  0  0  0  0  0  0  0
    3.7625   -9.1917    0.0000 F   0  0  0  0  0  0  0  0  0  0  0  0
    3.4625   -8.0667    0.0000 F   0  0  0  0  0  0  0  0  0  0  0  0
    5.6042   -8.4792    0.0000 C   0  0  0  0  0  0  0  0  0  0  0  0
    4.8875   -9.7167    0.0000 C   0  0  0  0  0  0  0  0  0  0  0  0
    6.3167   -9.7167    0.0000 C   0  0  0  0  0  0  0  0  0  0  0  0
    8.4667  -12.6125    0.0000 N   0  0  0  0  0  0  0  0  0  0  0  0
    6.3167   -8.8917    0.0000 C   0  0  0  0  0  0  0  0  0  0  0  0
    5.6042  -10.1292    0.0000 C   0  0  0  0  0  0  0  0  0  0  0  0
    8.5750   -9.6500    0.0000 Cl  0  0  0  0  0  0  0  0  0  0  0  0
    5.6042  -12.6125    0.0000 C   0  0  0  0  0  0  0  0  0  0  0  0
  2  1  1  0  0  0  0
  3  8  1  0  0  0  0
  4  1  2  0  0  0  0
  5  2  2  0  0  0  0
  6  9  2  0  0  0  0
  7  1  1  0  0  0  0
  8 14  1  0  0  0  0
  9  4  1  0  0  0  0
 10  3  1  0  0  0  0
 11  3  1  0  0  0  0
 12  3  1  0  0  0  0
 13 17  1  0  0  0  0
 14 18  2  0  0  0  0
 15  7  1  0  0  0  0
 16  5  1  0  0  0  0
 17 15  2  0  0  0  0
 18 15  1  0  0  0  0
 20  9  1  0  0  0  0
  5  6  1  0  0  0  0
  8 13  2  0  0  0  0
M  END
>  <Code> (P5870881)
P5870881

>  <Saltdata> (P5870881)
HCl

>  <Number of H-Donors> (P5870881)
2

>  <Number of H-Acceptors> (P5870881)
4

>  <Number of Rotatable bonds> (P5870881)
3

>  <CLogP> (P5870881)
2.900000000000000e+000

>  <Number of Rings> (P5870881)
2

>  <PSA> (P5870881)
6.380000000000000e+001

$$$$

  -ISIS-  11102212342D

 25 27  0  0  0  0  0  0  0  0999 V2000
    5.9167   -3.6292    0.0000 N   0  0  3  0  0  0  0  0  0  0  0  0
    6.6292   -3.2167    0.0000 C   0  0  0  0  0  0  0  0  0  0  0  0
    6.0917   -4.4417    0.0000 C   0  0  0  0  0  0  0  0  0  0  0  0
    7.2542   -3.7792    0.0000 N   0  0  0  0  0  0  0  0  0  0  0  0
    6.5792   -8.1917    0.0000 C   0  0  0  0  0  0  0  0  0  0  0  0
    6.6292   -2.3917    0.0000 C   0  0  0  0  0  0  0  0  0  0  0  0
    6.3167   -7.4042    0.0000 N   0  0  3  0  0  0  0  0  0  0  0  0
    6.9167   -4.5167    0.0000 C   0  0  0  0  0  0  0  0  0  0  0  0
    5.2042   -3.2167    0.0000 C   0  0  0  0  0  0  0  0  0  0  0  0
    5.9167   -1.9792    0.0000 C   0  0  0  0  0  0  0  0  0  0  0  0
    5.2042   -2.3917    0.0000 C   0  0  0  0  0  0  0  0  0  0  0  0
    5.8042   -5.8417    0.0000 N   0  0  3  0  0  0  0  0  0  0  0  0
    6.0292   -8.8042    0.0000 O   0  0  0  0  0  0  0  0  0  0  0  0
    5.5417   -5.0542    0.0000 C   0  0  0  0  0  0  0  0  0  0  0  0
    7.3792   -8.3667    0.0000 O   0  0  0  0  0  0  0  0  0  0  0  0
    6.8667   -6.7917    0.0000 C   0  0  0  0  0  0  0  0  0  0  0  0
    5.5125   -7.2417    0.0000 C   0  0  0  0  0  0  0  0  0  0  0  0
    6.2792   -9.5875    0.0000 C   0  0  3  0  0  0  0  0  0  0  0  0
    5.2542   -6.4542    0.0000 C   0  0  0  0  0  0  0  0  0  0  0  0
    6.6125   -6.0125    0.0000 C   0  0  0  0  0  0  0  0  0  0  0  0
    4.4792   -1.9667    0.0000 Br  0  0  0  0  0  0  0  0  0  0  0  0
    7.3542   -1.9667    0.0000 C   0  0  0  0  0  0  0  0  0  0  0  0
    5.4917   -9.8417    0.0000 C   0  0  0  0  0  0  0  0  0  0  0  0
    6.5375  -10.3750    0.0000 C   0  0  0  0  0  0  0  0  0  0  0  0
    7.0667   -9.3292    0.0000 C   0  0  0  0  0  0  0  0  0  0  0  0
  2  1  1  0  0  0  0
  3  1  1  0  0  0  0
  4  2  2  0  0  0  0
  5  7  1  0  0  0  0
  6  2  1  0  0  0  0
  7 16  1  0  0  0  0
  8  3  2  0  0  0  0
  9  1  1  0  0  0  0
 10 11  1  0  0  0  0
 11  9  2  0  0  0  0
 12 14  1  0  0  0  0
 13  5  1  0  0  0  0
 14  3  1  0  0  0  0
 15  5  2  0  0  0  0
 16 20  1  0  0  0  0
 17 19  1  0  0  0  0
 18 13  1  0  0  0  0
 19 12  1  0  0  0  0
 20 12  1  0  0  0  0
 21 11  1  0  0  0  0
 22  6  1  0  0  0  0
 23 18  1  0  0  0  0
 24 18  1  0  0  0  0
 25 18  1  0  0  0  0
  8  4  1  0  0  0  0
  6 10  2  0  0  0  0
 17  7  1  0  0  0  0
M  END
>  <Code> (P5662487)
P5662487

>  <Number of H-Donors> (P5662487)
0

>  <Number of H-Acceptors> (P5662487)
4

>  <Number of Rotatable bonds> (P5662487)
4

>  <CLogP> (P5662487)
2.900000000000000e+000

>  <Number of Rings> (P5662487)
3

>  <PSA> (P5662487)
5.009999999999999e+001

$$$$

  -ISIS-  11102212342D

 24 27  0  0  0  0  0  0  0  0999 V2000
    2.0167   -0.1750    0.0000 N   0  0  3  0  0  0  0  0  0  0  0  0
    1.3000    1.0625    0.0000 C   0  0  0  0  0  0  0  0  0  0  0  0
    3.3417   -0.3167    0.0000 N   0  0  0  0  0  0  0  0  0  0  0  0
    0.5792    1.4833    0.0000 N   0  3  0  0  0  0  0  0  0  0  0  0
    2.7292    0.2333    0.0000 C   0  0  0  0  0  0  0  0  0  0  0  0
    3.0042   -1.0625    0.0000 C   0  0  0  0  0  0  0  0  0  0  0  0
    1.3000    0.2333    0.0000 C   0  0  0  0  0  0  0  0  0  0  0  0
    2.1875   -0.9792    0.0000 C   0  0  0  0  0  0  0  0  0  0  0  0
    2.0167    1.4708    0.0000 C   0  0  0  0  0  0  0  0  0  0  0  0
    2.7292    1.0625    0.0000 C   0  0  0  0  0  0  0  0  0  0  0  0
    3.3875   -1.7917    0.0000 C   0  0  0  0  0  0  0  0  0  0  0  0
    0.5875    2.3083    0.0000 O   0  5  0  0  0  0  0  0  0  0  0  0
   -0.1250    1.0708    0.0000 O   0  0  0  0  0  0  0  0  0  0  0  0
    4.1417   -3.2542    0.0000 C   0  0  0  0  0  0  0  0  0  0  0  0
    4.2125   -1.8292    0.0000 C   0  0  0  0  0  0  0  0  0  0  0  0
    2.9417   -2.4792    0.0000 C   0  0  0  0  0  0  0  0  0  0  0  0
    3.3167   -3.2167    0.0000 C   0  0  0  0  0  0  0  0  0  0  0  0
    4.5875   -2.5667    0.0000 C   0  0  0  0  0  0  0  0  0  0  0  0
    4.5125   -3.9917    0.0000 C   0  0  0  0  0  0  0  0  0  0  0  0
    5.3375   -4.0417    0.0000 C   0  0  0  0  0  0  0  0  0  0  0  0
    4.0667   -4.6792    0.0000 C   0  0  0  0  0  0  0  0  0  0  0  0
    4.4375   -5.4167    0.0000 C   0  0  0  0  0  0  0  0  0  0  0  0
    5.7125   -4.7750    0.0000 C   0  0  0  0  0  0  0  0  0  0  0  0
    5.2625   -5.4667    0.0000 C   0  0  0  0  0  0  0  0  0  0  0  0
  2  7  2  0  0  0  0
  3  5  2  0  0  0  0
  4  2  1  0  0  0  0
  5  1  1  0  0  0  0
  6  8  2  0  0  0  0
  7  1  1  0  0  0  0
  8  1  1  0  0  0  0
  9  2  1  0  0  0  0
 10  5  1  0  0  0  0
 11  6  1  0  0  0  0
 12  4  1  0  0  0  0
 13  4  2  0  0  0  0
 14 17  2  0  0  0  0
 15 11  1  0  0  0  0
 16 11  2  0  0  0  0
 17 16  1  0  0  0  0
 18 15  2  0  0  0  0
 19 14  1  0  0  0  0
 20 19  1  0  0  0  0
 21 19  2  0  0  0  0
 22 21  1  0  0  0  0
 23 20  2  0  0  0  0
 24 22  2  0  0  0  0
  6  3  1  0  0  0  0
 10  9  2  0  0  0  0
 14 18  1  0  0  0  0
 23 24  1  0  0  0  0
M  CHG  2   4   1  12  -1
M  END
>  <Code> (P5662445)
P5662445

>  <Number of H-Donors> (P5662445)
0

>  <Number of H-Acceptors> (P5662445)
3

>  <Number of Rotatable bonds> (P5662445)
3

>  <CLogP> (P5662445)
3.900000000000000e+000

>  <Number of Rings> (P5662445)
4

>  <PSA> (P5662445)
6.309999999999999e+001

$$$$

  -ISIS-  11102212342D

 24 27  0  0  0  0  0  0  0  0999 V2000
    5.5292   -4.4792    0.0000 C   0  0  0  0  0  0  0  0  0  0  0  0
    5.4417   -3.6542    0.0000 C   0  0  0  0  0  0  0  0  0  0  0  0
    6.1875   -4.9667    0.0000 N   0  0  0  0  0  0  0  0  0  0  0  0
    4.8625   -4.9625    0.0000 N   0  0  3  0  0  0  0  0  0  0  0  0
    6.1042   -3.1667    0.0000 N   0  3  0  0  0  0  0  0  0  0  0  0
    5.9417   -5.7500    0.0000 C   0  0  0  0  0  0  0  0  0  0  0  0
    5.1250   -5.7500    0.0000 C   0  0  0  0  0  0  0  0  0  0  0  0
    4.6875   -3.3167    0.0000 C   0  0  0  0  0  0  0  0  0  0  0  0
    4.1042   -4.6250    0.0000 C   0  0  0  0  0  0  0  0  0  0  0  0
    6.4000   -6.4250    0.0000 C   0  0  0  0  0  0  0  0  0  0  0  0
    6.8625   -3.5042    0.0000 O   0  5  0  0  0  0  0  0  0  0  0  0
    6.0167   -2.3542    0.0000 O   0  0  0  0  0  0  0  0  0  0  0  0
    4.0167   -3.8042    0.0000 C   0  0  0  0  0  0  0  0  0  0  0  0
    7.3250   -7.7792    0.0000 C   0  0  0  0  0  0  0  0  0  0  0  0
    7.2250   -6.3625    0.0000 C   0  0  0  0  0  0  0  0  0  0  0  0
    6.0375   -7.1667    0.0000 C   0  0  0  0  0  0  0  0  0  0  0  0
    6.5000   -7.8417    0.0000 C   0  0  0  0  0  0  0  0  0  0  0  0
    7.6875   -7.0500    0.0000 C   0  0  0  0  0  0  0  0  0  0  0  0
    7.7917   -8.4667    0.0000 C   0  0  0  0  0  0  0  0  0  0  0  0
    8.6167   -8.4167    0.0000 C   0  0  0  0  0  0  0  0  0  0  0  0
    7.4292   -9.2167    0.0000 C   0  0  0  0  0  0  0  0  0  0  0  0
    7.8917   -9.8917    0.0000 C   0  0  0  0  0  0  0  0  0  0  0  0
    9.0792   -9.0917    0.0000 C   0  0  0  0  0  0  0  0  0  0  0  0
    8.7167   -9.8375    0.0000 C   0  0  0  0  0  0  0  0  0  0  0  0
  2  1  1  0  0  0  0
  3  1  2  0  0  0  0
  4  1  1  0  0  0  0
  5  2  1  0  0  0  0
  6  3  1  0  0  0  0
  7  4  1  0  0  0  0
  8  2  2  0  0  0  0
  9  4  1  0  0  0  0
 10  6  1  0  0  0  0
 11  5  1  0  0  0  0
 12  5  2  0  0  0  0
 13  9  2  0  0  0  0
 14 17  2  0  0  0  0
 15 10  1  0  0  0  0
 16 10  2  0  0  0  0
 17 16  1  0  0  0  0
 18 15  2  0  0  0  0
 19 14  1  0  0  0  0
 20 19  1  0  0  0  0
 21 19  2  0  0  0  0
 22 21  1  0  0  0  0
 23 20  2  0  0  0  0
 24 22  2  0  0  0  0
  6  7  2  0  0  0  0
 13  8  1  0  0  0  0
 18 14  1  0  0  0  0
 24 23  1  0  0  0  0
M  CHG  2   5   1  11  -1
M  END
>  <Code> (P5662411)
P5662411

>  <Number of H-Donors> (P5662411)
0

>  <Number of H-Acceptors> (P5662411)
3

>  <Number of Rotatable bonds> (P5662411)
3

>  <CLogP> (P5662411)
3.900000000000000e+000

>  <Number of Rings> (P5662411)
4

>  <PSA> (P5662411)
6.309999999999999e+001

$$$$

  -ISIS-  11102212342D

 19 21  0  0  0  0  0  0  0  0999 V2000
    4.1250   -4.5875    0.0000 N   0  0  3  0  0  0  0  0  0  0  0  0
    3.2875   -3.4292    0.0000 C   0  0  0  0  0  0  0  0  0  0  0  0
    5.4625   -4.5917    0.0000 N   0  0  0  0  0  0  0  0  0  0  0  0
    2.5250   -3.0875    0.0000 N   0  3  0  0  0  0  0  0  0  0  0  0
    4.8000   -4.1042    0.0000 C   0  0  0  0  0  0  0  0  0  0  0  0
    5.2125   -5.3750    0.0000 C   0  0  0  0  0  0  0  0  0  0  0  0
    3.3750   -4.2500    0.0000 C   0  0  0  0  0  0  0  0  0  0  0  0
    4.3875   -5.3750    0.0000 C   0  0  0  0  0  0  0  0  0  0  0  0
    3.9500   -2.9500    0.0000 C   0  0  0  0  0  0  0  0  0  0  0  0
    4.7042   -3.2875    0.0000 C   0  0  0  0  0  0  0  0  0  0  0  0
    5.6667   -6.0542    0.0000 C   0  0  0  0  0  0  0  0  0  0  0  0
    2.4375   -2.2625    0.0000 O   0  5  0  0  0  0  0  0  0  0  0  0
    1.8500   -3.5667    0.0000 O   0  0  0  0  0  0  0  0  0  0  0  0
    6.4917   -6.0000    0.0000 C   0  0  0  0  0  0  0  0  0  0  0  0
    5.3042   -6.7917    0.0000 C   0  0  0  0  0  0  0  0  0  0  0  0
    6.5917   -7.4167    0.0000 C   0  0  0  0  0  0  0  0  0  0  0  0
    5.7750   -7.4792    0.0000 C   0  0  0  0  0  0  0  0  0  0  0  0
    6.9542   -6.6792    0.0000 C   0  0  0  0  0  0  0  0  0  0  0  0
    7.0667   -8.1042    0.0000 O   0  0  0  0  0  0  0  0  0  0  0  0
  2  7  2  0  0  0  0
  3  5  2  0  0  0  0
  4  2  1  0  0  0  0
  5  1  1  0  0  0  0
  6  8  2  0  0  0  0
  7  1  1  0  0  0  0
  8  1  1  0  0  0  0
  9  2  1  0  0  0  0
 10  5  1  0  0  0  0
 11  6  1  0  0  0  0
 12  4  1  0  0  0  0
 13  4  2  0  0  0  0
 14 11  1  0  0  0  0
 15 11  2  0  0  0  0
 16 17  2  0  0  0  0
 17 15  1  0  0  0  0
 18 14  2  0  0  0  0
 19 16  1  0  0  0  0
  3  6  1  0  0  0  0
  9 10  2  0  0  0  0
 18 16  1  0  0  0  0
M  CHG  2   4   1  12  -1
M  END
>  <Code> (P5662409)
P5662409

>  <Number of H-Donors> (P5662409)
1

>  <Number of H-Acceptors> (P5662409)
4

>  <Number of Rotatable bonds> (P5662409)
2

>  <CLogP> (P5662409)
2.200000000000000e+000

>  <Number of Rings> (P5662409)
3

>  <PSA> (P5662409)
8.340000000000002e+001

$$$$

  -ISIS-  11102212342D

 25 28  0  0  0  0  0  0  0  0999 V2000
    4.8042   -4.4917    0.0000 C   0  0  0  0  0  0  0  0  0  0  0  0
    4.7167   -3.6792    0.0000 C   0  0  0  0  0  0  0  0  0  0  0  0
    4.1417   -4.9792    0.0000 N   0  0  3  0  0  0  0  0  0  0  0  0
    5.4667   -4.9917    0.0000 N   0  0  0  0  0  0  0  0  0  0  0  0
    5.3917   -3.1917    0.0000 N   0  3  0  0  0  0  0  0  0  0  0  0
    5.2292   -5.7667    0.0000 C   0  0  0  0  0  0  0  0  0  0  0  0
    4.4042   -5.7667    0.0000 C   0  0  0  0  0  0  0  0  0  0  0  0
    3.9667   -3.3417    0.0000 C   0  0  0  0  0  0  0  0  0  0  0  0
    3.3792   -4.6417    0.0000 C   0  0  0  0  0  0  0  0  0  0  0  0
    3.2917   -3.8292    0.0000 C   0  0  0  0  0  0  0  0  0  0  0  0
    5.6792   -6.4500    0.0000 C   0  0  0  0  0  0  0  0  0  0  0  0
    6.1417   -3.5292    0.0000 O   0  5  0  0  0  0  0  0  0  0  0  0
    5.3042   -2.3750    0.0000 O   0  0  0  0  0  0  0  0  0  0  0  0
    6.5917   -7.8250    0.0000 C   0  0  0  0  0  0  0  0  0  0  0  0
    6.5042   -6.3917    0.0000 C   0  0  0  0  0  0  0  0  0  0  0  0
    5.3042   -7.1875    0.0000 C   0  0  0  0  0  0  0  0  0  0  0  0
    5.7667   -7.8792    0.0000 C   0  0  0  0  0  0  0  0  0  0  0  0
    6.9625   -7.0792    0.0000 C   0  0  0  0  0  0  0  0  0  0  0  0
    7.0500   -8.5125    0.0000 C   0  0  0  0  0  0  0  0  0  0  0  0
    2.5500   -3.4917    0.0000 C   0  0  0  0  0  0  0  0  0  0  0  0
    6.6792   -9.2500    0.0000 C   0  0  0  0  0  0  0  0  0  0  0  0
    7.8750   -8.4625    0.0000 C   0  0  0  0  0  0  0  0  0  0  0  0
    8.3250   -9.1500    0.0000 C   0  0  0  0  0  0  0  0  0  0  0  0
    7.1375   -9.9375    0.0000 C   0  0  0  0  0  0  0  0  0  0  0  0
    7.9542   -9.8875    0.0000 C   0  0  0  0  0  0  0  0  0  0  0  0
  2  1  1  0  0  0  0
  3  1  1  0  0  0  0
  4  1  2  0  0  0  0
  5  2  1  0  0  0  0
  6  4  1  0  0  0  0
  7  3  1  0  0  0  0
  8  2  2  0  0  0  0
  9  3  1  0  0  0  0
 10  9  2  0  0  0  0
 11  6  1  0  0  0  0
 12  5  1  0  0  0  0
 13  5  2  0  0  0  0
 14 17  2  0  0  0  0
 15 11  1  0  0  0  0
 16 11  2  0  0  0  0
 17 16  1  0  0  0  0
 18 15  2  0  0  0  0
 19 14  1  0  0  0  0
 20 10  1  0  0  0  0
 21 19  2  0  0  0  0
 22 19  1  0  0  0  0
 23 22  2  0  0  0  0
 24 21  1  0  0  0  0
 25 23  1  0  0  0  0
  6  7  2  0  0  0  0
 10  8  1  0  0  0  0
 18 14  1  0  0  0  0
 25 24  2  0  0  0  0
M  CHG  2   5   1  12  -1
M  END
>  <Code> (P5662408)
P5662408

>  <Number of H-Donors> (P5662408)
0

>  <Number of H-Acceptors> (P5662408)
3

>  <Number of Rotatable bonds> (P5662408)
3

>  <CLogP> (P5662408)
4.400000000000000e+000

>  <Number of Rings> (P5662408)
4

>  <PSA> (P5662408)
6.309999999999999e+001

$$$$

  -ISIS-  11102212342D

 20 21  0  0  0  0  0  0  0  0999 V2000
   -1.9958   -0.5417    0.0000 C   0  0  0  0  0  0  0  0  0  0  0  0
   -1.3250   -0.0542    0.0000 C   0  0  0  0  0  0  0  0  0  0  0  0
   -1.7375   -1.3292    0.0000 N   0  0  0  0  0  0  0  0  0  0  0  0
   -0.6583   -0.5417    0.0000 S   0  0  0  0  0  0  0  0  0  0  0  0
   -0.9125   -1.3292    0.0000 C   0  0  0  0  0  0  0  0  0  0  0  0
   -2.7750   -0.2875    0.0000 C   0  0  3  0  0  0  0  0  0  0  0  0
   -1.3250    0.7708    0.0000 C   0  0  0  0  0  0  0  0  0  0  0  0
   -0.4250   -1.9917    0.0000 C   0  0  0  0  0  0  0  0  0  0  0  0
   -0.6083    1.1833    0.0000 O   0  0  0  0  0  0  0  0  0  0  0  0
   -3.5625   -0.0292    0.0000 F   0  0  0  0  0  0  0  0  0  0  0  0
   -3.0333   -1.0750    0.0000 F   0  0  0  0  0  0  0  0  0  0  0  0
   -2.5208    0.4958    0.0000 F   0  0  0  0  0  0  0  0  0  0  0  0
   -2.0375    1.1833    0.0000 O   0  0  0  0  0  0  0  0  0  0  0  0
    0.3917   -1.9042    0.0000 C   0  0  0  0  0  0  0  0  0  0  0  0
   -0.7625   -2.7500    0.0000 C   0  0  0  0  0  0  0  0  0  0  0  0
   -2.0375    2.0083    0.0000 C   0  0  0  0  0  0  0  0  0  0  0  0
   -2.7583    2.4208    0.0000 C   0  0  0  0  0  0  0  0  0  0  0  0
    0.8792   -2.5792    0.0000 C   0  0  0  0  0  0  0  0  0  0  0  0
   -0.2833   -3.4167    0.0000 C   0  0  0  0  0  0  0  0  0  0  0  0
    0.5417   -3.3292    0.0000 C   0  0  0  0  0  0  0  0  0  0  0  0
  2  1  2  0  0  0  0
  3  1  1  0  0  0  0
  4  2  1  0  0  0  0
  5  3  2  0  0  0  0
  6  1  1  0  0  0  0
  7  2  1  0  0  0  0
  8  5  1  0  0  0  0
  9  7  2  0  0  0  0
 10  6  1  0  0  0  0
 11  6  1  0  0  0  0
 12  6  1  0  0  0  0
 13  7  1  0  0  0  0
 14  8  2  0  0  0  0
 15  8  1  0  0  0  0
 16 13  1  0  0  0  0
 17 16  1  0  0  0  0
 18 14  1  0  0  0  0
 19 15  2  0  0  0  0
 20 19  1  0  0  0  0
  5  4  1  0  0  0  0
 18 20  2  0  0  0  0
M  END
>  <Code> (P5050178)
P5050178

>  <Number of H-Donors> (P5050178)
0

>  <Number of H-Acceptors> (P5050178)
3

>  <Number of Rotatable bonds> (P5050178)
5

>  <CLogP> (P5050178)
4.100000000000000e+000

>  <Number of Rings> (P5050178)
2

>  <PSA> (P5050178)
6.740000000000001e+001

$$$$

  -ISIS-  11102212342D

 31 34  0  0  0  0  0  0  0  0999 V2000
    5.8875   -0.2042    0.0000 N   0  0  3  0  0  0  0  0  0  0  0  0
    5.8875    0.6125    0.0000 C   0  0  0  0  0  0  0  0  0  0  0  0
    5.1750   -0.6167    0.0000 N   0  0  0  0  0  0  0  0  0  0  0  0
    5.1750    1.0333    0.0000 N   0  0  0  0  0  0  0  0  0  0  0  0
    6.6667   -0.4625    0.0000 C   0  0  0  0  0  0  0  0  0  0  0  0
    4.4667   -0.2125    0.0000 C   0  0  0  0  0  0  0  0  0  0  0  0
    6.6667    0.8708    0.0000 N   0  0  0  0  0  0  0  0  0  0  0  0
    4.4667    0.6125    0.0000 C   0  0  0  0  0  0  0  0  0  0  0  0
    7.1542    0.2083    0.0000 N   0  0  0  0  0  0  0  0  0  0  0  0
    3.7500   -0.6250    0.0000 C   0  0  0  0  0  0  0  0  0  0  0  0
    6.9250   -1.2417    0.0000 S   0  0  0  0  0  0  0  0  0  0  0  0
    6.0750   -3.2542    0.0000 N   0  0  0  0  0  0  0  0  0  0  0  0
    6.6292   -2.6417    0.0000 C   0  0  0  0  0  0  0  0  0  0  0  0
    5.2667   -3.0792    0.0000 C   0  0  0  0  0  0  0  0  0  0  0  0
    3.0375   -0.2125    0.0000 C   0  0  0  0  0  0  0  0  0  0  0  0
    3.7500    1.0250    0.0000 O   0  0  0  0  0  0  0  0  0  0  0  0
    2.3167   -0.6292    0.0000 C   0  0  0  0  0  0  0  0  0  0  0  0
    7.4292   -2.8167    0.0000 O   0  0  0  0  0  0  0  0  0  0  0  0
    4.7167   -3.7000    0.0000 C   0  0  0  0  0  0  0  0  0  0  0  0
    6.3667   -1.8542    0.0000 C   0  0  0  0  0  0  0  0  0  0  0  0
    2.3292   -1.4542    0.0000 Cl  0  0  0  0  0  0  0  0  0  0  0  0
    5.0167   -2.3000    0.0000 C   0  0  0  0  0  0  0  0  0  0  0  0
    3.0375    0.6125    0.0000 C   0  0  0  0  0  0  0  0  0  0  0  0
    4.9792   -4.4792    0.0000 C   0  0  0  0  0  0  0  0  0  0  0  0
    1.6125   -0.2167    0.0000 C   0  0  0  0  0  0  0  0  0  0  0  0
    3.9167   -3.5292    0.0000 C   0  0  0  0  0  0  0  0  0  0  0  0
    4.4292   -5.1000    0.0000 C   0  0  0  0  0  0  0  0  0  0  0  0
    4.2125   -2.1292    0.0000 C   0  0  0  0  0  0  0  0  0  0  0  0
    2.3167    1.0208    0.0000 C   0  0  0  0  0  0  0  0  0  0  0  0
    3.6542   -2.7417    0.0000 C   0  0  0  0  0  0  0  0  0  0  0  0
    1.6042    0.6083    0.0000 C   0  0  0  0  0  0  0  0  0  0  0  0
  2  1  1  0  0  0  0
  3  1  1  0  0  0  0
  4  2  1  0  0  0  0
  5  1  1  0  0  0  0
  6  3  2  0  0  0  0
  7  2  2  0  0  0  0
  8  6  1  0  0  0  0
  9  5  2  0  0  0  0
 10  6  1  0  0  0  0
 11  5  1  0  0  0  0
 12 13  1  0  0  0  0
 13 20  1  0  0  0  0
 14 12  1  0  0  0  0
 15 10  1  0  0  0  0
 16  8  2  0  0  0  0
 17 15  1  0  0  0  0
 18 13  2  0  0  0  0
 19 14  1  0  0  0  0
 20 11  1  0  0  0  0
 21 17  1  0  0  0  0
 22 14  2  0  0  0  0
 23 15  2  0  0  0  0
 24 19  1  0  0  0  0
 25 17  2  0  0  0  0
 26 19  2  0  0  0  0
 27 24  1  0  0  0  0
 28 22  1  0  0  0  0
 29 23  1  0  0  0  0
 30 28  2  0  0  0  0
 31 29  2  0  0  0  0
  7  9  1  0  0  0  0
  8  4  1  0  0  0  0
 31 25  1  0  0  0  0
 30 26  1  0  0  0  0
M  END
>  <Code> (P4794195)
P4794195

>  <Number of H-Donors> (P4794195)
2

>  <Number of H-Acceptors> (P4794195)
6

>  <Number of Rotatable bonds> (P4794195)
7

>  <CLogP> (P4794195)
4.000000000000000e+000

>  <Number of Rings> (P4794195)
4

>  <PSA> (P4794195)
1.266000000000000e+002

$$$$

  -ISIS-  11102212342D

 20 22  0  0  0  0  0  0  0  0999 V2000
    4.5125   -0.0917    0.0000 N   0  0  3  0  0  0  0  0  0  0  0  0
    3.6917   -0.0917    0.0000 C   0  0  0  0  0  0  0  0  0  0  0  0
    4.7750    0.7000    0.0000 C   0  0  0  0  0  0  0  0  0  0  0  0
    3.4417    0.7000    0.0000 N   0  0  0  0  0  0  0  0  0  0  0  0
    5.0542   -0.7042    0.0000 N   0  0  0  0  0  0  0  0  0  0  0  0
    4.1042    1.1875    0.0000 N   0  0  0  0  0  0  0  0  0  0  0  0
    3.2042   -0.7542    0.0000 C   0  0  3  0  0  0  0  0  0  0  0  0
    5.8750   -0.5417    0.0000 C   0  0  0  0  0  0  0  0  0  0  0  0
    5.5792    0.8708    0.0000 S   0  0  0  0  0  0  0  0  0  0  0  0
    6.4167   -1.1625    0.0000 N   0  0  0  0  0  0  0  0  0  0  0  0
    6.1375    0.2458    0.0000 C   0  0  0  0  0  0  0  0  0  0  0  0
    3.5417   -1.5042    0.0000 F   0  0  0  0  0  0  0  0  0  0  0  0
    2.7917   -1.4667    0.0000 F   0  0  0  0  0  0  0  0  0  0  0  0
    2.3792   -0.6667    0.0000 F   0  0  0  0  0  0  0  0  0  0  0  0
    6.1542   -1.9417    0.0000 C   0  0  3  0  0  0  0  0  0  0  0  0
    5.3500   -2.1042    0.0000 C   0  0  0  0  0  0  0  0  0  0  0  0
    6.7042   -2.5542    0.0000 C   0  0  0  0  0  0  0  0  0  0  0  0
    6.4417   -3.3417    0.0000 C   0  0  0  0  0  0  0  0  0  0  0  0
    5.0875   -2.8875    0.0000 C   0  0  0  0  0  0  0  0  0  0  0  0
    5.6292   -3.5042    0.0000 C   0  0  0  0  0  0  0  0  0  0  0  0
  2  1  1  0  0  0  0
  3  1  1  0  0  0  0
  4  2  2  0  0  0  0
  5  1  1  0  0  0  0
  6  3  2  0  0  0  0
  7  2  1  0  0  0  0
  8  5  2  0  0  0  0
  9  3  1  0  0  0  0
 10  8  1  0  0  0  0
 11  8  1  0  0  0  0
 12  7  1  0  0  0  0
 13  7  1  0  0  0  0
 14  7  1  0  0  0  0
 15 10  1  0  0  0  0
 16 15  1  0  0  0  0
 17 15  1  0  0  0  0
 18 17  1  0  0  0  0
 19 16  1  0  0  0  0
 20 18  1  0  0  0  0
  6  4  1  0  0  0  0
 11  9  1  0  0  0  0
 19 20  1  0  0  0  0
M  END
>  <Code> (P4794109)
P4794109

>  <Number of H-Donors> (P4794109)
1

>  <Number of H-Acceptors> (P4794109)
5

>  <Number of Rotatable bonds> (P4794109)
3

>  <CLogP> (P4794109)
2.800000000000000e+000

>  <Number of Rings> (P4794109)
3

>  <PSA> (P4794109)
8.040000000000001e+001

$$$$

  -ISIS-  11102212342D

 25 28  0  0  0  0  0  0  0  0999 V2000
    4.3292   -1.1417    0.0000 N   0  0  3  0  0  0  0  0  0  0  0  0
    3.7542   -1.7792    0.0000 C   0  0  0  0  0  0  0  0  0  0  0  0
    3.9042   -0.4500    0.0000 C   0  0  0  0  0  0  0  0  0  0  0  0
    3.0000   -1.4417    0.0000 N   0  0  0  0  0  0  0  0  0  0  0  0
    5.1500   -1.1417    0.0000 N   0  0  0  0  0  0  0  0  0  0  0  0
    3.1000   -0.6375    0.0000 N   0  0  0  0  0  0  0  0  0  0  0  0
    3.9042   -2.5750    0.0000 C   0  0  0  0  0  0  0  0  0  0  0  0
    5.5667   -0.4500    0.0000 C   0  0  0  0  0  0  0  0  0  0  0  0
    4.3292    0.2500    0.0000 S   0  0  0  0  0  0  0  0  0  0  0  0
    6.3917   -0.4500    0.0000 N   0  0  0  0  0  0  0  0  0  0  0  0
    6.8000   -1.1417    0.0000 C   0  0  0  0  0  0  0  0  0  0  0  0
    7.6292   -1.1667    0.0000 C   0  0  0  0  0  0  0  0  0  0  0  0
    3.2500   -3.1125    0.0000 C   0  0  0  0  0  0  0  0  0  0  0  0
    5.1500    0.2500    0.0000 C   0  0  0  0  0  0  0  0  0  0  0  0
    8.0292   -1.8500    0.0000 C   0  0  0  0  0  0  0  0  0  0  0  0
    2.4667   -2.8375    0.0000 Br  0  0  0  0  0  0  0  0  0  0  0  0
    4.6750   -2.8625    0.0000 C   0  0  0  0  0  0  0  0  0  0  0  0
    6.3917   -1.8500    0.0000 C   0  0  0  0  0  0  0  0  0  0  0  0
    6.8000   -2.5750    0.0000 C   0  0  0  0  0  0  0  0  0  0  0  0
    8.0292   -0.4250    0.0000 C   0  0  0  0  0  0  0  0  0  0  0  0
    7.6292   -2.5750    0.0000 C   0  0  0  0  0  0  0  0  0  0  0  0
    3.3917   -3.9042    0.0000 C   0  0  0  0  0  0  0  0  0  0  0  0
    8.8542   -1.8500    0.0000 C   0  0  0  0  0  0  0  0  0  0  0  0
    4.8167   -3.6792    0.0000 C   0  0  0  0  0  0  0  0  0  0  0  0
    4.1625   -4.1917    0.0000 C   0  0  0  0  0  0  0  0  0  0  0  0
  2  1  1  0  0  0  0
  3  1  1  0  0  0  0
  4  2  2  0  0  0  0
  5  1  1  0  0  0  0
  6  3  2  0  0  0  0
  7  2  1  0  0  0  0
  8  5  2  0  0  0  0
  9  3  1  0  0  0  0
 10  8  1  0  0  0  0
 11 10  1  0  0  0  0
 12 11  2  0  0  0  0
 13  7  1  0  0  0  0
 14  8  1  0  0  0  0
 15 12  1  0  0  0  0
 16 13  1  0  0  0  0
 17  7  2  0  0  0  0
 18 11  1  0  0  0  0
 19 18  2  0  0  0  0
 20 12  1  0  0  0  0
 21 19  1  0  0  0  0
 22 13  2  0  0  0  0
 23 15  1  0  0  0  0
 24 17  1  0  0  0  0
 25 24  2  0  0  0  0
  6  4  1  0  0  0  0
 14  9  1  0  0  0  0
 22 25  1  0  0  0  0
 15 21  2  0  0  0  0
M  END
>  <Code> (P4792377)
P4792377

>  <Number of H-Donors> (P4792377)
1

>  <Number of H-Acceptors> (P4792377)
5

>  <Number of Rotatable bonds> (P4792377)
3

>  <CLogP> (P4792377)
4.800000000000000e+000

>  <Number of Rings> (P4792377)
4

>  <PSA> (P4792377)
8.040000000000001e+001

$$$$

  -ISIS-  11102212342D

 25 28  0  0  0  0  0  0  0  0999 V2000
   -1.2833    2.1458    0.0000 N   0  0  3  0  0  0  0  0  0  0  0  0
   -2.1000    2.3208    0.0000 C   0  0  0  0  0  0  0  0  0  0  0  0
   -0.8833    2.8750    0.0000 C   0  0  0  0  0  0  0  0  0  0  0  0
   -2.1833    3.1333    0.0000 N   0  0  0  0  0  0  0  0  0  0  0  0
   -0.8833    1.4250    0.0000 N   0  0  0  0  0  0  0  0  0  0  0  0
   -1.4500    3.4833    0.0000 N   0  0  0  0  0  0  0  0  0  0  0  0
   -2.7333    1.7750    0.0000 C   0  0  0  0  0  0  0  0  0  0  0  0
   -0.0583    1.4250    0.0000 C   0  0  0  0  0  0  0  0  0  0  0  0
   -0.0583    2.8750    0.0000 S   0  0  0  0  0  0  0  0  0  0  0  0
    0.3500    0.6958    0.0000 N   0  0  0  0  0  0  0  0  0  0  0  0
   -0.0583   -0.0000    0.0000 C   0  0  0  0  0  0  0  0  0  0  0  0
    0.3500   -0.7042    0.0000 C   0  0  0  0  0  0  0  0  0  0  0  0
   -3.4958    2.0583    0.0000 C   0  0  0  0  0  0  0  0  0  0  0  0
    0.3500    2.1458    0.0000 C   0  0  0  0  0  0  0  0  0  0  0  0
   -0.0833   -1.4292    0.0000 C   0  0  0  0  0  0  0  0  0  0  0  0
   -3.6375    2.8958    0.0000 Br  0  0  0  0  0  0  0  0  0  0  0  0
    0.3250   -2.1542    0.0000 Cl  0  0  0  0  0  0  0  0  0  0  0  0
   -2.5625    0.9750    0.0000 C   0  0  0  0  0  0  0  0  0  0  0  0
   -0.8958   -0.0000    0.0000 C   0  0  0  0  0  0  0  0  0  0  0  0
    1.1625   -0.7042    0.0000 C   0  0  0  0  0  0  0  0  0  0  0  0
   -1.3000   -0.7042    0.0000 C   0  0  0  0  0  0  0  0  0  0  0  0
   -0.8958   -1.4292    0.0000 C   0  0  0  0  0  0  0  0  0  0  0  0
   -4.1250    1.5333    0.0000 C   0  0  0  0  0  0  0  0  0  0  0  0
   -3.1958    0.4375    0.0000 C   0  0  0  0  0  0  0  0  0  0  0  0
   -3.9750    0.7208    0.0000 C   0  0  0  0  0  0  0  0  0  0  0  0
  2  1  1  0  0  0  0
  3  1  1  0  0  0  0
  4  2  2  0  0  0  0
  5  1  1  0  0  0  0
  6  3  2  0  0  0  0
  7  2  1  0  0  0  0
  8  5  2  0  0  0  0
  9  3  1  0  0  0  0
 10  8  1  0  0  0  0
 11 10  1  0  0  0  0
 12 11  2  0  0  0  0
 13  7  1  0  0  0  0
 14  8  1  0  0  0  0
 15 12  1  0  0  0  0
 16 13  1  0  0  0  0
 17 15  1  0  0  0  0
 18  7  2  0  0  0  0
 19 11  1  0  0  0  0
 20 12  1  0  0  0  0
 21 19  2  0  0  0  0
 22 21  1  0  0  0  0
 23 13  2  0  0  0  0
 24 18  1  0  0  0  0
 25 24  2  0  0  0  0
  6  4  1  0  0  0  0
 14  9  1  0  0  0  0
 25 23  1  0  0  0  0
 15 22  2  0  0  0  0
M  END
>  <Code> (P4791969)
P4791969

>  <Number of H-Donors> (P4791969)
1

>  <Number of H-Acceptors> (P4791969)
5

>  <Number of Rotatable bonds> (P4791969)
3

>  <CLogP> (P4791969)
5.000000000000000e+000

>  <Number of Rings> (P4791969)
4

>  <PSA> (P4791969)
8.040000000000001e+001

$$$$

  -ISIS-  11102212342D

 15 16  0  0  0  0  0  0  0  0999 V2000
    1.8292   -0.3250    0.0000 N   0  0  3  0  0  0  0  0  0  0  0  0
    2.8167   -1.2250    0.0000 C   0  0  0  0  0  0  0  0  0  0  0  0
    3.1542   -0.4667    0.0000 N   0  0  0  0  0  0  0  0  0  0  0  0
    2.5417    0.0750    0.0000 C   0  0  0  0  0  0  0  0  0  0  0  0
    2.0000   -1.1375    0.0000 C   0  0  0  0  0  0  0  0  0  0  0  0
    1.1125    0.0750    0.0000 C   0  0  0  0  0  0  0  0  0  0  0  0
    3.2292   -1.9375    0.0000 C   0  0  0  0  0  0  0  0  0  0  0  0
    2.5417    0.9083    0.0000 C   0  0  0  0  0  0  0  0  0  0  0  0
    1.1125    0.9000    0.0000 C   0  0  0  0  0  0  0  0  0  0  0  0
    1.8250    1.3208    0.0000 C   0  0  0  0  0  0  0  0  0  0  0  0
    4.0542   -1.9375    0.0000 O   0  0  0  0  0  0  0  0  0  0  0  0
    0.4000   -0.3292    0.0000 Cl  0  0  0  0  0  0  0  0  0  0  0  0
    2.8042   -2.6417    0.0000 O   0  0  0  0  0  0  0  0  0  0  0  0
    1.9875   -2.6417    0.0000 C   0  0  0  0  0  0  0  0  0  0  0  0
    1.5750   -3.3667    0.0000 C   0  0  0  0  0  0  0  0  0  0  0  0
  2  5  2  0  0  0  0
  3  4  2  0  0  0  0
  4  1  1  0  0  0  0
  5  1  1  0  0  0  0
  6  1  1  0  0  0  0
  7  2  1  0  0  0  0
  8  4  1  0  0  0  0
  9  6  2  0  0  0  0
 10  9  1  0  0  0  0
 11  7  2  0  0  0  0
 12  6  1  0  0  0  0
 13  7  1  0  0  0  0
 14 13  1  0  0  0  0
 15 14  1  0  0  0  0
  2  3  1  0  0  0  0
  8 10  2  0  0  0  0
M  END
>  <Code> (P4787292)
P4787292

>  <Number of H-Donors> (P4787292)
0

>  <Number of H-Acceptors> (P4787292)
3

>  <Number of Rotatable bonds> (P4787292)
3

>  <CLogP> (P4787292)
2.100000000000000e+000

>  <Number of Rings> (P4787292)
2

>  <PSA> (P4787292)
4.359999999999999e+001

$$$$

  -ISIS-  11102212342D

 26 28  0  0  0  0  0  0  0  0999 V2000
    6.7667   -5.5542    0.0000 C   0  0  0  0  0  0  0  0  0  0  0  0
    6.6000   -4.7500    0.0000 N   0  0  3  0  0  0  0  0  0  0  0  0
    7.9250   -4.8917    0.0000 N   0  0  0  0  0  0  0  0  0  0  0  0
    7.5875   -5.6417    0.0000 C   0  0  0  0  0  0  0  0  0  0  0  0
    7.3125   -4.3417    0.0000 C   0  0  0  0  0  0  0  0  0  0  0  0
    5.8792   -4.3417    0.0000 C   0  0  0  0  0  0  0  0  0  0  0  0
    8.0000   -6.3542    0.0000 C   0  0  0  0  0  0  0  0  0  0  0  0
    6.2167   -6.1667    0.0000 C   0  0  0  0  0  0  0  0  0  0  0  0
    5.4042   -5.9917    0.0000 N   0  0  3  0  0  0  0  0  0  0  0  0
    7.3125   -3.5125    0.0000 C   0  0  0  0  0  0  0  0  0  0  0  0
    6.5917   -3.1000    0.0000 C   0  0  0  0  0  0  0  0  0  0  0  0
    5.8792   -3.5125    0.0000 C   0  0  0  0  0  0  0  0  0  0  0  0
    7.5792   -7.0667    0.0000 C   0  0  0  0  0  0  0  0  0  0  0  0
    3.8042   -5.6417    0.0000 N   0  0  0  0  0  0  0  0  0  0  0  0
    7.9917   -7.7792    0.0000 C   0  0  0  0  0  0  0  0  0  0  0  0
    3.0250   -5.1542    0.0000 Cl  0  0  0  0  0  0  0  0  0  0  0  0
    8.8167   -6.3542    0.0000 C   0  0  0  0  0  0  0  0  0  0  0  0
    7.5792   -8.4917    0.0000 O   0  0  0  0  0  0  0  0  0  0  0  0
    4.8625   -6.6042    0.0000 C   0  0  0  0  0  0  0  0  0  0  0  0
    5.1625   -5.2042    0.0000 C   0  0  0  0  0  0  0  0  0  0  0  0
    5.1667   -4.7542    0.0000 C   0  0  0  0  0  0  0  0  0  0  0  0
    9.2292   -7.0667    0.0000 C   0  0  0  0  0  0  0  0  0  0  0  0
    4.3542   -5.0292    0.0000 C   0  0  0  0  0  0  0  0  0  0  0  0
    4.0542   -6.4292    0.0000 C   0  0  0  0  0  0  0  0  0  0  0  0
    8.8167   -7.7875    0.0000 C   0  0  0  0  0  0  0  0  0  0  0  0
    7.1667   -9.2125    0.0000 C   0  0  0  0  0  0  0  0  0  0  0  0
  2  1  1  0  0  0  0
  3  4  1  0  0  0  0
  4  1  2  0  0  0  0
  5  2  1  0  0  0  0
  6  2  1  0  0  0  0
  7  4  1  0  0  0  0
  8  1  1  0  0  0  0
  9  8  1  0  0  0  0
 10  5  1  0  0  0  0
 11 12  1  0  0  0  0
 12  6  2  0  0  0  0
 13  7  2  0  0  0  0
 14 24  1  0  0  0  0
 15 13  1  0  0  0  0
 17  7  1  0  0  0  0
 18 15  1  0  0  0  0
 19  9  1  0  0  0  0
 20  9  1  0  0  0  0
 21  6  1  0  0  0  0
 22 17  2  0  0  0  0
 23 20  1  0  0  0  0
 24 19  1  0  0  0  0
 25 22  1  0  0  0  0
 26 18  1  0  0  0  0
  3  5  2  0  0  0  0
 14 23  1  0  0  0  0
 10 11  2  0  0  0  0
 15 25  2  0  0  0  0
M  END
>  <Code> (P4787291)
P4787291

>  <Saltdata> (P4787291)
HCl

>  <Number of H-Donors> (P4787291)
1

>  <Number of H-Acceptors> (P4787291)
4

>  <Number of Rotatable bonds> (P4787291)
4

>  <CLogP> (P4787291)
2.900000000000000e+000

>  <Number of Rings> (P4787291)
4

>  <PSA> (P4787291)
4.180000000000000e+001

$$$$

  -ISIS-  11102212342D

 16 17  0  0  0  0  0  0  0  0999 V2000
    2.0292   -0.4667    0.0000 C   0  0  0  0  0  0  0  0  0  0  0  0
    2.8375   -0.4292    0.0000 N   0  0  0  0  0  0  0  0  0  0  0  0
    1.8000   -1.2542    0.0000 C   0  0  0  0  0  0  0  0  0  0  0  0
    3.1250   -1.2167    0.0000 C   0  0  0  0  0  0  0  0  0  0  0  0
    2.4792   -1.7167    0.0000 O   0  0  0  0  0  0  0  0  0  0  0  0
    1.5167    0.1875    0.0000 C   0  0  0  0  0  0  0  0  0  0  0  0
    1.0250   -1.5375    0.0000 N   0  0  0  0  0  0  0  0  0  0  0  0
    3.9167   -1.4417    0.0000 C   0  0  0  0  0  0  0  0  0  0  0  0
    1.8250    0.9500    0.0000 O   0  0  0  0  0  0  0  0  0  0  0  0
    0.7042    0.0625    0.0000 N   0  0  0  0  0  0  0  0  0  0  0  0
    0.8792   -2.3500    0.0000 N   0  0  0  0  0  0  0  0  0  0  0  0
    4.1167   -2.2417    0.0000 C   0  0  0  0  0  0  0  0  0  0  0  0
    4.5042   -0.8667    0.0000 C   0  0  0  0  0  0  0  0  0  0  0  0
    5.3000   -1.0875    0.0000 C   0  0  0  0  0  0  0  0  0  0  0  0
    4.9042   -2.4667    0.0000 C   0  0  0  0  0  0  0  0  0  0  0  0
    5.5042   -1.8917    0.0000 C   0  0  0  0  0  0  0  0  0  0  0  0
  2  1  1  0  0  0  0
  3  1  2  0  0  0  0
  4  2  2  0  0  0  0
  5  3  1  0  0  0  0
  6  1  1  0  0  0  0
  7  3  1  0  0  0  0
  8  4  1  0  0  0  0
  9  6  2  0  0  0  0
 10  6  1  0  0  0  0
 11  7  1  0  0  0  0
 12  8  2  0  0  0  0
 13  8  1  0  0  0  0
 14 13  2  0  0  0  0
 15 12  1  0  0  0  0
 16 14  1  0  0  0  0
  4  5  1  0  0  0  0
 16 15  2  0  0  0  0
M  END
>  <Code> (P4773227)
P4773227

>  <Number of H-Donors> (P4773227)
3

>  <Number of H-Acceptors> (P4773227)
4

>  <Number of Rotatable bonds> (P4773227)
3

>  <CLogP> (P4773227)
5.000000000000000e-001

>  <Number of Rings> (P4773227)
2

>  <PSA> (P4773227)
1.072000000000000e+002

$$$$

  -ISIS-  11102212342D

 18 19  0  0  0  0  0  0  0  0999 V2000
    6.2042   -5.8292    0.0000 C   0  0  0  0  0  0  0  0  0  0  0  0
    7.0250   -5.8292    0.0000 N   0  0  0  0  0  0  0  0  0  0  0  0
    5.9417   -6.6125    0.0000 C   0  0  0  0  0  0  0  0  0  0  0  0
    7.2750   -6.6375    0.0000 C   0  0  0  0  0  0  0  0  0  0  0  0
    6.6000   -7.1125    0.0000 O   0  0  0  0  0  0  0  0  0  0  0  0
    5.7292   -5.1417    0.0000 C   0  0  0  0  0  0  0  0  0  0  0  0
    8.0542   -6.9000    0.0000 C   0  0  0  0  0  0  0  0  0  0  0  0
    5.1417   -6.8500    0.0000 N   0  0  0  0  0  0  0  0  0  0  0  0
    4.8917   -5.2167    0.0000 O   0  0  0  0  0  0  0  0  0  0  0  0
    8.2167   -7.7125    0.0000 C   0  0  0  0  0  0  0  0  0  0  0  0
    8.6750   -6.3542    0.0000 C   0  0  0  0  0  0  0  0  0  0  0  0
    6.0667   -4.3917    0.0000 O   0  0  0  0  0  0  0  0  0  0  0  0
    4.9542   -7.6542    0.0000 N   0  0  0  0  0  0  0  0  0  0  0  0
    9.4542   -6.6167    0.0000 C   0  0  0  0  0  0  0  0  0  0  0  0
    9.0000   -7.9750    0.0000 C   0  0  0  0  0  0  0  0  0  0  0  0
    9.6250   -7.4292    0.0000 C   0  0  0  0  0  0  0  0  0  0  0  0
   10.4042   -7.6917    0.0000 C   0  0  0  0  0  0  0  0  0  0  0  0
    5.5917   -3.7167    0.0000 C   0  0  0  0  0  0  0  0  0  0  0  0
  2  1  1  0  0  0  0
  3  1  2  0  0  0  0
  4  2  2  0  0  0  0
  5  3  1  0  0  0  0
  6  1  1  0  0  0  0
  7  4  1  0  0  0  0
  8  3  1  0  0  0  0
  9  6  2  0  0  0  0
 10  7  2  0  0  0  0
 11  7  1  0  0  0  0
 12  6  1  0  0  0  0
 13  8  1  0  0  0  0
 14 11  2  0  0  0  0
 15 10  1  0  0  0  0
 16 14  1  0  0  0  0
 17 16  1  0  0  0  0
 18 12  1  0  0  0  0
  5  4  1  0  0  0  0
 15 16  2  0  0  0  0
M  END
>  <Code> (P4772877)
P4772877

>  <Number of H-Donors> (P4772877)
2

>  <Number of H-Acceptors> (P4772877)
5

>  <Number of Rotatable bonds> (P4772877)
4

>  <CLogP> (P4772877)
1.800000000000000e+000

>  <Number of Rings> (P4772877)
2

>  <PSA> (P4772877)
9.040000000000001e+001

$$$$

  -ISIS-  11102212342D

 21 23  0  0  0  0  0  0  0  0999 V2000
    7.3000    0.4125    0.0000 S   0  0  3  0  0  0  0  0  0  0  0  0
    4.3667    2.7333    0.0000 N   0  0  0  0  0  0  0  0  0  0  0  0
    4.3667    1.3958    0.0000 N   0  0  0  0  0  0  0  0  0  0  0  0
    3.8875    2.0625    0.0000 C   0  0  0  0  0  0  0  0  0  0  0  0
    5.1542    1.6500    0.0000 C   0  0  0  0  0  0  0  0  0  0  0  0
    7.3000    1.2375    0.0000 N   0  0  0  0  0  0  0  0  0  0  0  0
    5.1542    2.4750    0.0000 C   0  0  0  0  0  0  0  0  0  0  0  0
    7.3000   -0.4125    0.0000 C   0  0  0  0  0  0  0  0  0  0  0  0
    5.8667    1.2375    0.0000 C   0  0  0  0  0  0  0  0  0  0  0  0
    6.4750    0.4125    0.0000 O   0  0  0  0  0  0  0  0  0  0  0  0
    8.1250    0.4125    0.0000 O   0  0  0  0  0  0  0  0  0  0  0  0
    6.5875    1.6500    0.0000 C   0  0  0  0  0  0  0  0  0  0  0  0
    5.8667    2.8958    0.0000 C   0  0  0  0  0  0  0  0  0  0  0  0
    6.5875   -0.8250    0.0000 C   0  0  0  0  0  0  0  0  0  0  0  0
    8.0167   -0.8250    0.0000 C   0  0  0  0  0  0  0  0  0  0  0  0
    6.5875    2.4750    0.0000 C   0  0  0  0  0  0  0  0  0  0  0  0
    7.3000   -2.0625    0.0000 C   0  0  0  0  0  0  0  0  0  0  0  0
    8.0167   -1.6500    0.0000 C   0  0  0  0  0  0  0  0  0  0  0  0
    6.5875   -1.6500    0.0000 C   0  0  0  0  0  0  0  0  0  0  0  0
    7.3000   -2.8875    0.0000 Cl  0  0  0  0  0  0  0  0  0  0  0  0
    3.0625    2.0625    0.0000 C   0  0  0  0  0  0  0  0  0  0  0  0
  2  7  1  0  0  0  0
  3  5  1  0  0  0  0
  4  3  1  0  0  0  0
  5  9  1  0  0  0  0
  6  1  1  0  0  0  0
  7 13  1  0  0  0  0
  8  1  1  0  0  0  0
  9 12  2  0  0  0  0
 10  1  2  0  0  0  0
 11  1  2  0  0  0  0
 12  6  1  0  0  0  0
 13 16  2  0  0  0  0
 14  8  1  0  0  0  0
 15  8  2  0  0  0  0
 16 12  1  0  0  0  0
 17 18  2  0  0  0  0
 18 15  1  0  0  0  0
 19 14  2  0  0  0  0
 20 17  1  0  0  0  0
 21  4  1  0  0  0  0
 17 19  1  0  0  0  0
  7  5  2  0  0  0  0
  2  4  2  0  0  0  0
M  END
>  <Code> (P4532750)
P4532750

>  <Number of H-Donors> (P4532750)
2

>  <Number of H-Acceptors> (P4532750)
3

>  <Number of Rotatable bonds> (P4532750)
3

>  <CLogP> (P4532750)
2.800000000000000e+000

>  <Number of Rings> (P4532750)
3

>  <PSA> (P4532750)
8.320000000000000e+001

$$$$

  -ISIS-  11102212342D

 12 12  0  0  0  0  0  0  0  0999 V2000
    4.3792   -1.0875    0.0000 C   0  0  3  0  0  0  0  0  0  0  0  0
    2.2417   -2.3250    0.0000 C   0  0  3  0  0  0  0  0  0  0  0  0
    3.6667   -1.5000    0.0000 C   0  0  3  0  0  0  0  0  0  0  0  0
    2.9542   -1.0792    0.0000 C   0  0  0  0  0  0  0  0  0  0  0  0
    3.6667   -2.3250    0.0000 C   0  0  0  0  0  0  0  0  0  0  0  0
    2.2417   -1.5000    0.0000 C   0  0  0  0  0  0  0  0  0  0  0  0
    2.9542   -2.7292    0.0000 C   0  0  0  0  0  0  0  0  0  0  0  0
    5.1042   -0.6875    0.0000 O   0  0  0  0  0  0  0  0  0  0  0  0
    2.0292   -3.1167    0.0000 O   0  0  0  0  0  0  0  0  0  0  0  0
    4.7917   -1.8000    0.0000 C   0  0  0  0  0  0  0  0  0  0  0  0
    3.9667   -0.3667    0.0000 C   0  0  0  0  0  0  0  0  0  0  0  0
    1.4167   -2.3250    0.0000 C   0  0  0  0  0  0  0  0  0  0  0  0
  2  7  1  0  0  0  0
  3  1  1  0  0  0  0
  4  3  1  0  0  0  0
  5  3  1  0  0  0  0
  6  4  1  0  0  0  0
  7  5  1  0  0  0  0
  8  1  1  0  0  0  0
  9  2  1  0  0  0  0
 10  1  1  0  0  0  0
 11  1  1  0  0  0  0
 12  2  1  0  0  0  0
  2  6  1  0  0  0  0
M  END
>  <Code> (P4435284)
P4435284

>  <Number of H-Donors> (P4435284)
2

>  <Number of H-Acceptors> (P4435284)
2

>  <Number of Rotatable bonds> (P4435284)
1

>  <CLogP> (P4435284)
1.400000000000000e+000

>  <Number of Rings> (P4435284)
1

>  <PSA> (P4435284)
4.050000000000000e+001

$$$$

  -ISIS-  11102212342D

 24 26  0  0  0  0  0  0  0  0999 V2000
    1.1500   -0.0167    0.0000 S   0  0  3  0  0  0  0  0  0  0  0  0
    3.9542   -2.7375    0.0000 N   0  0  3  0  0  0  0  0  0  0  0  0
    4.4417   -1.5000    0.0000 N   0  0  0  0  0  0  0  0  0  0  0  0
    4.6500   -2.2917    0.0000 C   0  0  0  0  0  0  0  0  0  0  0  0
    3.6167   -1.4542    0.0000 C   0  0  0  0  0  0  0  0  0  0  0  0
    3.3167   -2.2167    0.0000 C   0  0  0  0  0  0  0  0  0  0  0  0
    1.9750   -0.0167    0.0000 C   0  0  0  0  0  0  0  0  0  0  0  0
    3.9917   -3.5542    0.0000 C   0  0  0  0  0  0  0  0  0  0  0  0
    5.3792   -2.6667    0.0000 C   0  0  0  0  0  0  0  0  0  0  0  0
    0.3250   -0.0292    0.0000 N   0  0  3  0  0  0  0  0  0  0  0  0
    3.2042   -0.7292    0.0000 C   0  0  0  0  0  0  0  0  0  0  0  0
    4.7292   -3.9292    0.0000 C   0  0  0  0  0  0  0  0  0  0  0  0
    2.3792   -0.7292    0.0000 C   0  0  0  0  0  0  0  0  0  0  0  0
    1.1292    0.8958    0.0000 O   0  0  0  0  0  0  0  0  0  0  0  0
    1.1792   -0.8375    0.0000 O   0  0  0  0  0  0  0  0  0  0  0  0
    5.4167   -3.4917    0.0000 C   0  0  0  0  0  0  0  0  0  0  0  0
    4.7625   -4.7542    0.0000 Cl  0  0  0  0  0  0  0  0  0  0  0  0
    2.3917    0.7000    0.0000 C   0  0  0  0  0  0  0  0  0  0  0  0
    3.6292   -0.0167    0.0000 C   0  0  0  0  0  0  0  0  0  0  0  0
    3.2167    0.6958    0.0000 C   0  0  0  0  0  0  0  0  0  0  0  0
   -0.1083    0.6750    0.0000 C   0  0  0  0  0  0  0  0  0  0  0  0
   -0.0708   -0.7542    0.0000 C   0  0  0  0  0  0  0  0  0  0  0  0
   -0.9000   -0.7667    0.0000 C   0  0  0  0  0  0  0  0  0  0  0  0
   -0.9250    0.6583    0.0000 C   0  0  0  0  0  0  0  0  0  0  0  0
  2  6  1  0  0  0  0
  3  5  1  0  0  0  0
  4  3  2  0  0  0  0
  5 11  1  0  0  0  0
  6  5  2  0  0  0  0
  7  1  1  0  0  0  0
  8  2  1  0  0  0  0
  9  4  1  0  0  0  0
 10  1  1  0  0  0  0
 11 13  1  0  0  0  0
 12  8  2  0  0  0  0
 13  7  2  0  0  0  0
 14  1  2  0  0  0  0
 15  1  2  0  0  0  0
 16  9  2  0  0  0  0
 17 12  1  0  0  0  0
 18  7  1  0  0  0  0
 19 20  1  0  0  0  0
 20 18  2  0  0  0  0
 21 10  1  0  0  0  0
 22 10  1  0  0  0  0
 23 22  1  0  0  0  0
 24 21  1  0  0  0  0
 19 11  2  0  0  0  0
  2  4  1  0  0  0  0
 16 12  1  0  0  0  0
M  END
>  <Code> (P4357347)
P4357347

>  <Number of H-Donors> (P4357347)
0

>  <Number of H-Acceptors> (P4357347)
3

>  <Number of Rotatable bonds> (P4357347)
5

>  <CLogP> (P4357347)
3.000000000000000e+000

>  <Number of Rings> (P4357347)
3

>  <PSA> (P4357347)
6.309999999999999e+001

$$$$

  -ISIS-  11102212342D

 26 29  0  0  0  0  0  0  0  0999 V2000
   -0.1750    1.5333    0.0000 S   0  0  3  0  0  0  0  0  0  0  0  0
    3.0875   -0.0292    0.0000 N   0  0  0  0  0  0  0  0  0  0  0  0
    3.2375   -0.8417    0.0000 C   0  0  0  0  0  0  0  0  0  0  0  0
    2.5167   -1.2375    0.0000 N   0  0  3  0  0  0  0  0  0  0  0  0
    2.2542    0.0708    0.0000 C   0  0  0  0  0  0  0  0  0  0  0  0
    1.9167   -0.6792    0.0000 C   0  0  0  0  0  0  0  0  0  0  0  0
   -1.0000    1.5583    0.0000 N   0  0  3  0  0  0  0  0  0  0  0  0
    0.6500    1.5208    0.0000 C   0  0  0  0  0  0  0  0  0  0  0  0
    3.9417   -1.2542    0.0000 C   0  0  0  0  0  0  0  0  0  0  0  0
    1.8667    0.7833    0.0000 C   0  0  0  0  0  0  0  0  0  0  0  0
    1.0417    0.7875    0.0000 C   0  0  0  0  0  0  0  0  0  0  0  0
   -0.2000    0.7083    0.0000 O   0  0  0  0  0  0  0  0  0  0  0  0
   -0.1500    2.5083    0.0000 O   0  0  0  0  0  0  0  0  0  0  0  0
    2.5042   -2.0542    0.0000 C   0  0  0  0  0  0  0  0  0  0  0  0
    3.2167   -2.4792    0.0000 C   0  0  0  0  0  0  0  0  0  0  0  0
    3.9292   -2.0792    0.0000 C   0  0  0  0  0  0  0  0  0  0  0  0
   -1.3875    0.8250    0.0000 C   0  0  0  0  0  0  0  0  0  0  0  0
   -1.3333    2.3208    0.0000 C   0  0  0  0  0  0  0  0  0  0  0  0
    1.0667    2.2208    0.0000 C   0  0  0  0  0  0  0  0  0  0  0  0
    4.6667   -0.8542    0.0000 C   0  0  0  0  0  0  0  0  0  0  0  0
    2.2917    1.4958    0.0000 C   0  0  0  0  0  0  0  0  0  0  0  0
    1.8917    2.2083    0.0000 C   0  0  0  0  0  0  0  0  0  0  0  0
   -2.2083    0.6833    0.0000 C   0  0  0  0  0  0  0  0  0  0  0  0
   -2.1333    2.5333    0.0000 C   0  0  0  0  0  0  0  0  0  0  0  0
   -2.7958    2.0458    0.0000 C   0  0  0  0  0  0  0  0  0  0  0  0
   -2.8250    1.2208    0.0000 C   0  0  0  0  0  0  0  0  0  0  0  0
  2  5  1  0  0  0  0
  3  2  2  0  0  0  0
  4  6  1  0  0  0  0
  5 10  1  0  0  0  0
  6  5  2  0  0  0  0
  7  1  1  0  0  0  0
  8  1  1  0  0  0  0
  9  3  1  0  0  0  0
 10 11  2  0  0  0  0
 11  8  1  0  0  0  0
 12  1  2  0  0  0  0
 13  1  2  0  0  0  0
 14  4  1  0  0  0  0
 15 14  2  0  0  0  0
 16  9  2  0  0  0  0
 17  7  1  0  0  0  0
 18  7  1  0  0  0  0
 19  8  2  0  0  0  0
 20  9  1  0  0  0  0
 21 22  2  0  0  0  0
 22 19  1  0  0  0  0
 23 17  1  0  0  0  0
 24 18  1  0  0  0  0
 25 24  1  0  0  0  0
 26 23  1  0  0  0  0
 10 21  1  0  0  0  0
 26 25  1  0  0  0  0
  3  4  1  0  0  0  0
 15 16  1  0  0  0  0
M  END
>  <Code> (P4354613)
P4354613

>  <Number of H-Donors> (P4354613)
0

>  <Number of H-Acceptors> (P4354613)
3

>  <Number of Rotatable bonds> (P4354613)
3

>  <CLogP> (P4354613)
3.500000000000000e+000

>  <Number of Rings> (P4354613)
4

>  <PSA> (P4354613)
6.309999999999999e+001

$$$$

  -ISIS-  11102212342D

 26 29  0  0  0  0  0  0  0  0999 V2000
   -0.7333   -0.0542    0.0000 S   0  0  3  0  0  0  0  0  0  0  0  0
    1.9792   -2.8167    0.0000 N   0  0  3  0  0  0  0  0  0  0  0  0
    2.5375   -1.6042    0.0000 N   0  0  0  0  0  0  0  0  0  0  0  0
    2.6917   -2.4250    0.0000 C   0  0  0  0  0  0  0  0  0  0  0  0
    1.7125   -1.5125    0.0000 C   0  0  0  0  0  0  0  0  0  0  0  0
    1.3750   -2.2667    0.0000 C   0  0  0  0  0  0  0  0  0  0  0  0
   -1.5583   -0.0167    0.0000 N   0  0  3  0  0  0  0  0  0  0  0  0
    0.0917   -0.0667    0.0000 C   0  0  0  0  0  0  0  0  0  0  0  0
    1.9667   -3.6417    0.0000 C   0  0  0  0  0  0  0  0  0  0  0  0
    3.4000   -2.8417    0.0000 C   0  0  0  0  0  0  0  0  0  0  0  0
    1.3167   -0.7917    0.0000 C   0  0  0  0  0  0  0  0  0  0  0  0
    2.6667   -4.0667    0.0000 C   0  0  0  0  0  0  0  0  0  0  0  0
    0.4917   -0.7917    0.0000 C   0  0  0  0  0  0  0  0  0  0  0  0
   -0.7583   -0.8667    0.0000 O   0  0  0  0  0  0  0  0  0  0  0  0
   -0.7083    0.9458    0.0000 O   0  0  0  0  0  0  0  0  0  0  0  0
    3.3875   -3.6667    0.0000 C   0  0  0  0  0  0  0  0  0  0  0  0
    2.6542   -4.8917    0.0000 Cl  0  0  0  0  0  0  0  0  0  0  0  0
   -1.8958    0.7458    0.0000 C   0  0  0  0  0  0  0  0  0  0  0  0
   -1.9500   -0.7542    0.0000 C   0  0  0  0  0  0  0  0  0  0  0  0
    0.5167    0.6375    0.0000 C   0  0  0  0  0  0  0  0  0  0  0  0
    1.7375   -0.0875    0.0000 C   0  0  0  0  0  0  0  0  0  0  0  0
    1.3417    0.6333    0.0000 C   0  0  0  0  0  0  0  0  0  0  0  0
   -2.7708   -0.8917    0.0000 C   0  0  0  0  0  0  0  0  0  0  0  0
   -2.6958    0.9583    0.0000 C   0  0  0  0  0  0  0  0  0  0  0  0
   -3.3625    0.4625    0.0000 C   0  0  0  0  0  0  0  0  0  0  0  0
   -3.3958   -0.3542    0.0000 C   0  0  0  0  0  0  0  0  0  0  0  0
  2  6  1  0  0  0  0
  3  5  1  0  0  0  0
  4  3  2  0  0  0  0
  5 11  1  0  0  0  0
  6  5  2  0  0  0  0
  7  1  1  0  0  0  0
  8  1  1  0  0  0  0
  9  2  1  0  0  0  0
 10  4  1  0  0  0  0
 11 13  2  0  0  0  0
 12  9  2  0  0  0  0
 13  8  1  0  0  0  0
 14  1  2  0  0  0  0
 15  1  2  0  0  0  0
 16 10  2  0  0  0  0
 17 12  1  0  0  0  0
 18  7  1  0  0  0  0
 19  7  1  0  0  0  0
 20  8  2  0  0  0  0
 21 22  2  0  0  0  0
 22 20  1  0  0  0  0
 23 19  1  0  0  0  0
 24 18  1  0  0  0  0
 25 24  1  0  0  0  0
 26 23  1  0  0  0  0
 11 21  1  0  0  0  0
 26 25  1  0  0  0  0
  4  2  1  0  0  0  0
 12 16  1  0  0  0  0
M  END
>  <Code> (P4354609)
P4354609

>  <Number of H-Donors> (P4354609)
0

>  <Number of H-Acceptors> (P4354609)
3

>  <Number of Rotatable bonds> (P4354609)
3

>  <CLogP> (P4354609)
3.700000000000000e+000

>  <Number of Rings> (P4354609)
4

>  <PSA> (P4354609)
6.309999999999999e+001

$$$$

  -ISIS-  11102212342D

 26 29  0  0  0  0  0  0  0  0999 V2000
    0.4375    0.6458    0.0000 S   0  0  3  0  0  0  0  0  0  0  0  0
   -0.3958    0.6750    0.0000 N   0  0  3  0  0  0  0  0  0  0  0  0
    3.7042   -0.9125    0.0000 N   0  0  0  0  0  0  0  0  0  0  0  0
    2.8875   -0.8250    0.0000 C   0  0  0  0  0  0  0  0  0  0  0  0
    3.1417   -2.1250    0.0000 N   0  0  3  0  0  0  0  0  0  0  0  0
    3.8625   -1.7292    0.0000 C   0  0  0  0  0  0  0  0  0  0  0  0
    2.5375   -1.5667    0.0000 C   0  0  0  0  0  0  0  0  0  0  0  0
    1.2625    0.6250    0.0000 C   0  0  0  0  0  0  0  0  0  0  0  0
   -0.8375   -0.0167    0.0000 C   0  0  0  0  0  0  0  0  0  0  0  0
   -0.7833    1.4208    0.0000 C   0  0  0  0  0  0  0  0  0  0  0  0
    2.4875   -0.1042    0.0000 C   0  0  0  0  0  0  0  0  0  0  0  0
    0.4542    1.6375    0.0000 O   0  0  0  0  0  0  0  0  0  0  0  0
    0.4125   -0.1792    0.0000 O   0  0  0  0  0  0  0  0  0  0  0  0
    1.6542   -0.0917    0.0000 C   0  0  0  0  0  0  0  0  0  0  0  0
   -2.0458    0.7500    0.0000 O   0  0  0  0  0  0  0  0  0  0  0  0
    3.1292   -2.9417    0.0000 C   0  0  0  0  0  0  0  0  0  0  0  0
    4.5667   -2.1500    0.0000 C   0  0  0  0  0  0  0  0  0  0  0  0
   -1.6708    0.0125    0.0000 C   0  0  3  0  0  0  0  0  0  0  0  0
   -1.6083    1.4458    0.0000 C   0  0  3  0  0  0  0  0  0  0  0  0
    3.8375   -3.3667    0.0000 C   0  0  0  0  0  0  0  0  0  0  0  0
    4.5542   -2.9750    0.0000 C   0  0  0  0  0  0  0  0  0  0  0  0
    1.6875    1.3333    0.0000 C   0  0  0  0  0  0  0  0  0  0  0  0
    2.9125    0.6125    0.0000 C   0  0  0  0  0  0  0  0  0  0  0  0
    2.5042    1.3333    0.0000 C   0  0  0  0  0  0  0  0  0  0  0  0
   -1.9958    2.1833    0.0000 C   0  0  0  0  0  0  0  0  0  0  0  0
   -2.1083   -0.6875    0.0000 C   0  0  0  0  0  0  0  0  0  0  0  0
  2  1  1  0  0  0  0
  3  4  1  0  0  0  0
  4 11  1  0  0  0  0
  5  7  1  0  0  0  0
  6  3  2  0  0  0  0
  7  4  2  0  0  0  0
  8  1  1  0  0  0  0
  9  2  1  0  0  0  0
 10  2  1  0  0  0  0
 11 14  2  0  0  0  0
 12  1  2  0  0  0  0
 13  1  2  0  0  0  0
 14  8  1  0  0  0  0
 15 19  1  0  0  0  0
 16  5  1  0  0  0  0
 17  6  1  0  0  0  0
 18  9  1  0  0  0  0
 19 10  1  0  0  0  0
 20 16  2  0  0  0  0
 21 17  2  0  0  0  0
 22  8  2  0  0  0  0
 23 24  2  0  0  0  0
 24 22  1  0  0  0  0
 25 19  1  0  0  0  0
 26 18  1  0  0  0  0
 15 18  1  0  0  0  0
 11 23  1  0  0  0  0
  6  5  1  0  0  0  0
 20 21  1  0  0  0  0
M  END
>  <Code> (P4354439)
P4354439

>  <Number of H-Donors> (P4354439)
0

>  <Number of H-Acceptors> (P4354439)
4

>  <Number of Rotatable bonds> (P4354439)
3

>  <CLogP> (P4354439)
2.100000000000000e+000

>  <Number of Rings> (P4354439)
4

>  <PSA> (P4354439)
7.230000000000001e+001

$$$$

  -ISIS-  11102212342D

 30 34  0  0  0  0  0  0  0  0999 V2000
    8.0292   -4.8250    0.0000 N   0  0  3  0  0  0  0  0  0  0  0  0
    7.6417   -3.5417    0.0000 C   0  0  0  0  0  0  0  0  0  0  0  0
    8.0167   -5.6542    0.0000 C   0  0  0  0  0  0  0  0  0  0  0  0
    8.7167   -4.3542    0.0000 C   0  0  0  0  0  0  0  0  0  0  0  0
    7.0667   -2.9625    0.0000 C   0  0  0  0  0  0  0  0  0  0  0  0
    8.4667   -3.5625    0.0000 C   0  0  0  0  0  0  0  0  0  0  0  0
    7.3750   -4.3292    0.0000 C   0  0  3  0  0  0  0  0  0  0  0  0
    8.6792   -6.1417    0.0000 S   0  0  0  0  0  0  0  0  0  0  0  0
    7.2167   -2.1542    0.0000 N   0  0  0  0  0  0  0  0  0  0  0  0
    7.3375   -6.1417    0.0000 N   0  0  0  0  0  0  0  0  0  0  0  0
    6.2625   -3.0792    0.0000 S   0  0  0  0  0  0  0  0  0  0  0  0
    7.5792   -6.9167    0.0000 N   0  0  0  0  0  0  0  0  0  0  0  0
    8.4042   -6.9292    0.0000 C   0  0  0  0  0  0  0  0  0  0  0  0
    6.4917   -1.7667    0.0000 C   0  0  0  0  0  0  0  0  0  0  0  0
    5.9000   -2.3417    0.0000 C   0  0  0  0  0  0  0  0  0  0  0  0
    6.6667   -4.7542    0.0000 C   0  0  0  0  0  0  0  0  0  0  0  0
    9.5000   -4.6292    0.0000 O   0  0  0  0  0  0  0  0  0  0  0  0
    8.9625   -2.9042    0.0000 O   0  0  0  0  0  0  0  0  0  0  0  0
    5.9417   -4.3167    0.0000 C   0  0  0  0  0  0  0  0  0  0  0  0
    6.6542   -5.5750    0.0000 C   0  0  0  0  0  0  0  0  0  0  0  0
    5.9417   -5.9792    0.0000 C   0  0  0  0  0  0  0  0  0  0  0  0
    5.2292   -4.7375    0.0000 C   0  0  0  0  0  0  0  0  0  0  0  0
    5.2250   -5.5667    0.0000 C   0  0  0  0  0  0  0  0  0  0  0  0
    8.8792   -7.6125    0.0000 C   0  0  0  0  0  0  0  0  0  0  0  0
    6.2917   -0.9667    0.0000 C   0  0  0  0  0  0  0  0  0  0  0  0
    5.1167   -2.1042    0.0000 C   0  0  0  0  0  0  0  0  0  0  0  0
    4.5167   -5.9792    0.0000 C   0  0  0  0  0  0  0  0  0  0  0  0
    3.8042   -5.5667    0.0000 C   0  0  0  0  0  0  0  0  0  0  0  0
    5.5042   -0.7417    0.0000 C   0  0  0  0  0  0  0  0  0  0  0  0
    4.9125   -1.3167    0.0000 C   0  0  0  0  0  0  0  0  0  0  0  0
  2  7  1  0  0  0  0
  3  1  1  0  0  0  0
  4  1  1  0  0  0  0
  5  2  1  0  0  0  0
  6  4  1  0  0  0  0
  7  1  1  0  0  0  0
  8  3  1  0  0  0  0
  9  5  2  0  0  0  0
 10  3  2  0  0  0  0
 11  5  1  0  0  0  0
 12 10  1  0  0  0  0
 13  8  1  0  0  0  0
 14  9  1  0  0  0  0
 15 11  1  0  0  0  0
 16  7  1  0  0  0  0
 17  4  2  0  0  0  0
 18  6  1  0  0  0  0
 19 16  2  0  0  0  0
 20 16  1  0  0  0  0
 21 20  2  0  0  0  0
 22 19  1  0  0  0  0
 23 21  1  0  0  0  0
 24 13  1  0  0  0  0
 25 14  1  0  0  0  0
 26 15  1  0  0  0  0
 27 23  1  0  0  0  0
 28 27  1  0  0  0  0
 29 25  2  0  0  0  0
 30 26  2  0  0  0  0
  2  6  2  0  0  0  0
 13 12  2  0  0  0  0
 23 22  2  0  0  0  0
 14 15  2  0  0  0  0
 30 29  1  0  0  0  0
M  END
>  <Code> (P4354122)
P4354122

>  <Number of H-Donors> (P4354122)
1

>  <Number of H-Acceptors> (P4354122)
5

>  <Number of Rotatable bonds> (P4354122)
4

>  <CLogP> (P4354122)
4.200000000000000e+000

>  <Number of Rings> (P4354122)
5

>  <PSA> (P4354122)
1.357000000000000e+002

$$$$

  -ISIS-  11102212342D

 34 38  0  0  0  0  0  0  0  0999 V2000
    7.7042   -4.4042    0.0000 N   0  0  3  0  0  0  0  0  0  0  0  0
    7.3125   -3.1292    0.0000 C   0  0  0  0  0  0  0  0  0  0  0  0
    7.6917   -5.2292    0.0000 C   0  0  0  0  0  0  0  0  0  0  0  0
    8.3875   -3.9375    0.0000 C   0  0  0  0  0  0  0  0  0  0  0  0
    6.8292   -2.4542    0.0000 C   0  0  0  0  0  0  0  0  0  0  0  0
    8.1417   -3.1417    0.0000 C   0  0  0  0  0  0  0  0  0  0  0  0
    8.0792   -6.5125    0.0000 C   0  0  0  0  0  0  0  0  0  0  0  0
    7.0417   -3.9125    0.0000 C   0  0  3  0  0  0  0  0  0  0  0  0
    8.3542   -5.7292    0.0000 S   0  0  0  0  0  0  0  0  0  0  0  0
    7.0042   -5.7125    0.0000 N   0  0  0  0  0  0  0  0  0  0  0  0
    7.0917   -1.6792    0.0000 N   0  0  0  0  0  0  0  0  0  0  0  0
    7.2500   -6.5000    0.0000 C   0  0  0  0  0  0  0  0  0  0  0  0
    6.0042   -2.4750    0.0000 S   0  0  0  0  0  0  0  0  0  0  0  0
    8.5417   -7.1917    0.0000 C   0  0  0  0  0  0  0  0  0  0  0  0
    6.4167   -1.2042    0.0000 C   0  0  0  0  0  0  0  0  0  0  0  0
    5.7542   -1.6875    0.0000 C   0  0  0  0  0  0  0  0  0  0  0  0
    6.3292   -4.3292    0.0000 C   0  0  0  0  0  0  0  0  0  0  0  0
    9.1667   -4.2042    0.0000 O   0  0  0  0  0  0  0  0  0  0  0  0
    8.1917   -7.9292    0.0000 O   0  0  0  0  0  0  0  0  0  0  0  0
    8.6292   -2.4792    0.0000 O   0  0  0  0  0  0  0  0  0  0  0  0
    5.6125   -3.8917    0.0000 C   0  0  0  0  0  0  0  0  0  0  0  0
    6.3250   -5.1417    0.0000 C   0  0  0  0  0  0  0  0  0  0  0  0
    9.3625   -7.1250    0.0000 O   0  0  0  0  0  0  0  0  0  0  0  0
    4.9000   -4.3167    0.0000 C   0  0  0  0  0  0  0  0  0  0  0  0
    5.6125   -5.5542    0.0000 C   0  0  0  0  0  0  0  0  0  0  0  0
    6.7542   -7.1542    0.0000 C   0  0  0  0  0  0  0  0  0  0  0  0
    4.8917   -5.1417    0.0000 C   0  0  0  0  0  0  0  0  0  0  0  0
    6.3375   -0.3792    0.0000 C   0  0  0  0  0  0  0  0  0  0  0  0
    5.0125   -1.3542    0.0000 C   0  0  0  0  0  0  0  0  0  0  0  0
    4.1792   -5.5542    0.0000 C   0  0  0  0  0  0  0  0  0  0  0  0
    9.8375   -7.8000    0.0000 C   0  0  0  0  0  0  0  0  0  0  0  0
    3.4667   -5.1417    0.0000 C   0  0  0  0  0  0  0  0  0  0  0  0
    4.9167   -0.5375    0.0000 C   0  0  0  0  0  0  0  0  0  0  0  0
    5.5792   -0.0417    0.0000 C   0  0  0  0  0  0  0  0  0  0  0  0
  2  8  1  0  0  0  0
  3  1  1  0  0  0  0
  4  1  1  0  0  0  0
  5  2  1  0  0  0  0
  6  4  1  0  0  0  0
  7  9  1  0  0  0  0
  8  1  1  0  0  0  0
  9  3  1  0  0  0  0
 10  3  2  0  0  0  0
 11  5  2  0  0  0  0
 12 10  1  0  0  0  0
 13  5  1  0  0  0  0
 14  7  1  0  0  0  0
 15 11  1  0  0  0  0
 16 13  1  0  0  0  0
 17  8  1  0  0  0  0
 18  4  2  0  0  0  0
 19 14  2  0  0  0  0
 20  6  1  0  0  0  0
 21 17  2  0  0  0  0
 22 17  1  0  0  0  0
 23 14  1  0  0  0  0
 24 21  1  0  0  0  0
 25 22  2  0  0  0  0
 26 12  1  0  0  0  0
 27 25  1  0  0  0  0
 28 15  1  0  0  0  0
 29 16  1  0  0  0  0
 30 27  1  0  0  0  0
 31 23  1  0  0  0  0
 32 30  1  0  0  0  0
 33 29  2  0  0  0  0
 34 28  2  0  0  0  0
  2  6  2  0  0  0  0
  7 12  2  0  0  0  0
 27 24  2  0  0  0  0
 15 16  2  0  0  0  0
 33 34  1  0  0  0  0
M  END
>  <Code> (P4354117)
P4354117

>  <Number of H-Donors> (P4354117)
1

>  <Number of H-Acceptors> (P4354117)
6

>  <Number of Rotatable bonds> (P4354117)
6

>  <CLogP> (P4354117)
4.900000000000000e+000

>  <Number of Rings> (P4354117)
5

>  <PSA> (P4354117)
1.491000000000000e+002

$$$$

  -ISIS-  11102212342D

 27 30  0  0  0  0  0  0  0  0999 V2000
   -1.2375    2.5208    0.0000 N   0  0  3  0  0  0  0  0  0  0  0  0
   -0.9708    3.2958    0.0000 C   0  0  0  0  0  0  0  0  0  0  0  0
   -0.5708    2.0333    0.0000 N   0  0  0  0  0  0  0  0  0  0  0  0
   -2.0458    2.5208    0.0000 C   0  0  0  0  0  0  0  0  0  0  0  0
   -0.1458    3.2958    0.0000 S   0  0  0  0  0  0  0  0  0  0  0  0
    0.0917    2.5208    0.0000 C   0  0  0  0  0  0  0  0  0  0  0  0
   -2.2958    3.3083    0.0000 N   0  0  0  0  0  0  0  0  0  0  0  0
   -1.6250    3.7958    0.0000 N   0  0  0  0  0  0  0  0  0  0  0  0
    0.8542    2.2500    0.0000 C   0  0  0  0  0  0  0  0  0  0  0  0
    2.4042    1.7208    0.0000 C   0  0  0  0  0  0  0  0  0  0  0  0
    1.8042    1.1833    0.0000 C   0  0  0  0  0  0  0  0  0  0  0  0
    2.2417    2.5250    0.0000 C   0  0  0  0  0  0  0  0  0  0  0  0
    1.0042    1.4458    0.0000 C   0  0  0  0  0  0  0  0  0  0  0  0
    1.4667    2.7875    0.0000 C   0  0  0  0  0  0  0  0  0  0  0  0
   -2.4833    1.8208    0.0000 C   0  0  0  0  0  0  0  0  0  0  0  0
   -3.3083    1.8208    0.0000 C   0  0  0  0  0  0  0  0  0  0  0  0
   -2.0625    1.1000    0.0000 C   0  0  0  0  0  0  0  0  0  0  0  0
    3.1792    1.4250    0.0000 O   0  0  0  0  0  0  0  0  0  0  0  0
   -3.3083    0.3958    0.0000 C   0  0  0  0  0  0  0  0  0  0  0  0
    2.8417    3.0833    0.0000 O   0  0  0  0  0  0  0  0  0  0  0  0
    1.9917    0.3958    0.0000 O   0  0  0  0  0  0  0  0  0  0  0  0
   -3.7125    1.1125    0.0000 C   0  0  0  0  0  0  0  0  0  0  0  0
   -2.4833    0.3833    0.0000 C   0  0  0  0  0  0  0  0  0  0  0  0
   -3.7333   -0.3250    0.0000 Cl  0  0  0  0  0  0  0  0  0  0  0  0
    3.3042    0.6375    0.0000 C   0  0  0  0  0  0  0  0  0  0  0  0
    3.6042    2.8500    0.0000 C   0  0  0  0  0  0  0  0  0  0  0  0
    1.4250   -0.1542    0.0000 C   0  0  0  0  0  0  0  0  0  0  0  0
  2  1  1  0  0  0  0
  3  1  1  0  0  0  0
  4  1  1  0  0  0  0
  5  2  1  0  0  0  0
  6  3  2  0  0  0  0
  7  4  2  0  0  0  0
  8  2  2  0  0  0  0
  9  6  1  0  0  0  0
 10 12  1  0  0  0  0
 11 13  1  0  0  0  0
 12 14  2  0  0  0  0
 13  9  2  0  0  0  0
 14  9  1  0  0  0  0
 15  4  1  0  0  0  0
 16 15  2  0  0  0  0
 17 15  1  0  0  0  0
 18 10  1  0  0  0  0
 19 23  1  0  0  0  0
 20 12  1  0  0  0  0
 21 11  1  0  0  0  0
 22 16  1  0  0  0  0
 23 17  2  0  0  0  0
 24 19  1  0  0  0  0
 25 18  1  0  0  0  0
 26 20  1  0  0  0  0
 27 21  1  0  0  0  0
  6  5  1  0  0  0  0
  8  7  1  0  0  0  0
 19 22  2  0  0  0  0
 11 10  2  0  0  0  0
M  END
>  <Code> (P4350335)
P4350335

>  <Number of H-Donors> (P4350335)
0

>  <Number of H-Acceptors> (P4350335)
6

>  <Number of Rotatable bonds> (P4350335)
5

>  <CLogP> (P4350335)
4.000000000000000e+000

>  <Number of Rings> (P4350335)
4

>  <PSA> (P4350335)
9.900000000000000e+001

$$$$

  -ISIS-  11102212342D

 15 16  0  0  0  0  0  0  0  0999 V2000
    1.4292    0.0125    0.0000 C   0  0  0  0  0  0  0  0  0  0  0  0
    0.9417   -0.6625    0.0000 N   0  0  0  0  0  0  0  0  0  0  0  0
    0.1542    0.4208    0.0000 N   0  0  3  0  0  0  0  0  0  0  0  0
    0.1542   -0.4042    0.0000 C   0  0  0  0  0  0  0  0  0  0  0  0
    0.9417    0.6708    0.0000 C   0  0  0  0  0  0  0  0  0  0  0  0
   -0.5583    0.8458    0.0000 C   0  0  0  0  0  0  0  0  0  0  0  0
    2.2542    0.0333    0.0000 C   0  0  0  0  0  0  0  0  0  0  0  0
   -0.5583   -0.8292    0.0000 C   0  0  0  0  0  0  0  0  0  0  0  0
   -1.2875    0.4208    0.0000 C   0  0  0  0  0  0  0  0  0  0  0  0
   -1.2875   -0.4042    0.0000 C   0  0  0  0  0  0  0  0  0  0  0  0
    2.5917   -0.5417    0.0000 O   0  0  0  0  0  0  0  0  0  0  0  0
   -1.8583    0.7458    0.0000 F   0  0  0  0  0  0  0  0  0  0  0  0
    2.6625    0.7500    0.0000 O   0  0  0  0  0  0  0  0  0  0  0  0
    3.4917    0.7583    0.0000 C   0  0  0  0  0  0  0  0  0  0  0  0
    3.8167    1.3458    0.0000 C   0  0  0  0  0  0  0  0  0  0  0  0
  2  1  1  0  0  0  0
  3  5  1  0  0  0  0
  4  2  2  0  0  0  0
  5  1  2  0  0  0  0
  6  3  1  0  0  0  0
  7  1  1  0  0  0  0
  8  4  1  0  0  0  0
  9  6  2  0  0  0  0
 10  8  2  0  0  0  0
 11  7  2  0  0  0  0
 12  9  1  0  0  0  0
 13  7  1  0  0  0  0
 14 13  1  0  0  0  0
 15 14  1  0  0  0  0
  3  4  1  0  0  0  0
  9 10  1  0  0  0  0
M  END
>  <Code> (P4162669)
P4162669

>  <Number of H-Donors> (P4162669)
0

>  <Number of H-Acceptors> (P4162669)
3

>  <Number of Rotatable bonds> (P4162669)
3

>  <CLogP> (P4162669)
1.400000000000000e+000

>  <Number of Rings> (P4162669)
2

>  <PSA> (P4162669)
4.359999999999999e+001

$$$$

  -ISIS-  11102212342D

 20 22  0  0  0  0  0  0  0  0999 V2000
    4.7417   -6.8292    0.0000 N   0  0  3  0  0  0  0  0  0  0  0  0
    4.8917   -6.0167    0.0000 C   0  0  0  0  0  0  0  0  0  0  0  0
    3.5750   -6.2042    0.0000 C   0  0  0  0  0  0  0  0  0  0  0  0
    4.1542   -5.6292    0.0000 N   0  0  0  0  0  0  0  0  0  0  0  0
    3.9292   -6.9417    0.0000 C   0  0  0  0  0  0  0  0  0  0  0  0
    5.4667   -7.2042    0.0000 C   0  0  0  0  0  0  0  0  0  0  0  0
    5.6917   -5.9042    0.0000 S   0  0  0  0  0  0  0  0  0  0  0  0
    6.0667   -6.6292    0.0000 C   0  0  0  0  0  0  0  0  0  0  0  0
    2.7542   -6.0542    0.0000 C   0  0  0  0  0  0  0  0  0  0  0  0
    5.5917   -8.0292    0.0000 C   0  0  0  0  0  0  0  0  0  0  0  0
    2.2167   -6.6792    0.0000 O   0  0  0  0  0  0  0  0  0  0  0  0
    4.9542   -8.5417    0.0000 C   0  0  0  0  0  0  0  0  0  0  0  0
    6.3667   -8.3167    0.0000 C   0  0  0  0  0  0  0  0  0  0  0  0
    2.4750   -5.2792    0.0000 O   0  0  0  0  0  0  0  0  0  0  0  0
    6.4917   -9.1417    0.0000 C   0  0  0  0  0  0  0  0  0  0  0  0
    5.0667   -9.3542    0.0000 C   0  0  0  0  0  0  0  0  0  0  0  0
    5.8417   -9.6625    0.0000 C   0  0  0  0  0  0  0  0  0  0  0  0
    3.0042   -4.6417    0.0000 C   0  0  0  0  0  0  0  0  0  0  0  0
    5.9667  -10.4750    0.0000 C   0  0  0  0  0  0  0  0  0  0  0  0
    2.7292   -3.8750    0.0000 C   0  0  0  0  0  0  0  0  0  0  0  0
  2  1  1  0  0  0  0
  3  5  2  0  0  0  0
  4  2  2  0  0  0  0
  5  1  1  0  0  0  0
  6  1  1  0  0  0  0
  7  2  1  0  0  0  0
  8  6  2  0  0  0  0
  9  3  1  0  0  0  0
 10  6  1  0  0  0  0
 11  9  2  0  0  0  0
 12 10  2  0  0  0  0
 13 10  1  0  0  0  0
 14  9  1  0  0  0  0
 15 13  2  0  0  0  0
 16 12  1  0  0  0  0
 17 15  1  0  0  0  0
 18 14  1  0  0  0  0
 19 17  1  0  0  0  0
 20 18  1  0  0  0  0
  8  7  1  0  0  0  0
  3  4  1  0  0  0  0
 17 16  2  0  0  0  0
M  END
>  <Code> (P4061537)
P4061537

>  <Number of H-Donors> (P4061537)
0

>  <Number of H-Acceptors> (P4061537)
3

>  <Number of Rotatable bonds> (P4061537)
4

>  <CLogP> (P4061537)
3.400000000000000e+000

>  <Number of Rings> (P4061537)
3

>  <PSA> (P4061537)
7.180000000000000e+001

$$$$

  -ISIS-  11102212342D

 23 26  0  0  0  0  0  0  0  0999 V2000
    6.5417  -10.1667    0.0000 N   0  0  3  0  0  0  0  0  0  0  0  0
    6.2917  -10.9542    0.0000 C   0  0  0  0  0  0  0  0  0  0  0  0
    7.3792  -10.1667    0.0000 C   0  0  0  0  0  0  0  0  0  0  0  0
    3.8917   -7.8417    0.0000 N   0  0  3  0  0  0  0  0  0  0  0  0
    4.6042   -7.4292    0.0000 C   0  0  0  0  0  0  0  0  0  0  0  0
    5.2250   -7.9917    0.0000 N   0  0  0  0  0  0  0  0  0  0  0  0
    7.6292  -10.9542    0.0000 C   0  0  0  0  0  0  0  0  0  0  0  0
    6.9667  -11.4292    0.0000 C   0  0  0  0  0  0  0  0  0  0  0  0
    4.0667   -8.6542    0.0000 C   0  0  0  0  0  0  0  0  0  0  0  0
    4.8875   -8.7292    0.0000 C   0  0  0  0  0  0  0  0  0  0  0  0
    3.1792   -7.4292    0.0000 C   0  0  0  0  0  0  0  0  0  0  0  0
    6.1292   -9.4542    0.0000 C   0  0  0  0  0  0  0  0  0  0  0  0
    4.6042   -6.6000    0.0000 C   0  0  0  0  0  0  0  0  0  0  0  0
    7.8667   -9.4917    0.0000 O   0  0  0  0  0  0  0  0  0  0  0  0
    5.5042  -11.2042    0.0000 O   0  0  0  0  0  0  0  0  0  0  0  0
    5.3042   -9.4542    0.0000 C   0  0  0  0  0  0  0  0  0  0  0  0
    3.8917   -6.1875    0.0000 C   0  0  0  0  0  0  0  0  0  0  0  0
    3.1792   -6.6000    0.0000 C   0  0  0  0  0  0  0  0  0  0  0  0
    7.0542  -12.2542    0.0000 C   0  0  0  0  0  0  0  0  0  0  0  0
    8.3792  -11.2917    0.0000 C   0  0  0  0  0  0  0  0  0  0  0  0
    2.4625   -7.8417    0.0000 C   0  0  0  0  0  0  0  0  0  0  0  0
    7.8042  -12.5917    0.0000 C   0  0  0  0  0  0  0  0  0  0  0  0
    8.4667  -12.1042    0.0000 C   0  0  0  0  0  0  0  0  0  0  0  0
  2  1  1  0  0  0  0
  3  1  1  0  0  0  0
  4  9  1  0  0  0  0
  5  6  2  0  0  0  0
  6 10  1  0  0  0  0
  7  3  1  0  0  0  0
  8  2  1  0  0  0  0
  9 10  2  0  0  0  0
 10 16  1  0  0  0  0
 11  4  1  0  0  0  0
 12  1  1  0  0  0  0
 13  5  1  0  0  0  0
 14  3  2  0  0  0  0
 15  2  2  0  0  0  0
 16 12  1  0  0  0  0
 17 13  2  0  0  0  0
 18 11  2  0  0  0  0
 19  8  1  0  0  0  0
 20  7  1  0  0  0  0
 21 11  1  0  0  0  0
 22 19  2  0  0  0  0
 23 20  2  0  0  0  0
  8  7  2  0  0  0  0
 23 22  1  0  0  0  0
  5  4  1  0  0  0  0
 18 17  1  0  0  0  0
M  END
>  <Code> (P4061522)
P4061522

>  <Number of H-Donors> (P4061522)
0

>  <Number of H-Acceptors> (P4061522)
3

>  <Number of Rotatable bonds> (P4061522)
3

>  <CLogP> (P4061522)
1.900000000000000e+000

>  <Number of Rings> (P4061522)
4

>  <PSA> (P4061522)
5.470000000000000e+001

$$$$

  -ISIS-  11102212342D

 24 27  0  0  0  0  0  0  0  0999 V2000
    7.6417   -6.5042    0.0000 N   0  0  3  0  0  0  0  0  0  0  0  0
    4.9750   -4.2125    0.0000 N   0  0  3  0  0  0  0  0  0  0  0  0
    5.6875   -3.8000    0.0000 C   0  0  0  0  0  0  0  0  0  0  0  0
    7.3875   -7.2917    0.0000 C   0  0  0  0  0  0  0  0  0  0  0  0
    8.4667   -6.5042    0.0000 C   0  0  0  0  0  0  0  0  0  0  0  0
    6.3042   -4.3542    0.0000 N   0  0  0  0  0  0  0  0  0  0  0  0
    5.6875   -2.9667    0.0000 C   0  0  0  0  0  0  0  0  0  0  0  0
    8.7167   -7.2875    0.0000 C   0  0  0  0  0  0  0  0  0  0  0  0
    8.0542   -7.7750    0.0000 C   0  0  0  0  0  0  0  0  0  0  0  0
    4.9750   -2.5542    0.0000 C   0  0  0  0  0  0  0  0  0  0  0  0
    5.1500   -5.0167    0.0000 C   0  0  0  0  0  0  0  0  0  0  0  0
    4.2542   -3.8000    0.0000 C   0  0  0  0  0  0  0  0  0  0  0  0
    5.9667   -5.1000    0.0000 C   0  0  0  0  0  0  0  0  0  0  0  0
    4.2542   -2.9750    0.0000 C   0  0  0  0  0  0  0  0  0  0  0  0
    7.2250   -5.8000    0.0000 C   0  0  0  0  0  0  0  0  0  0  0  0
    8.9542   -5.8292    0.0000 O   0  0  0  0  0  0  0  0  0  0  0  0
    6.6000   -7.5417    0.0000 O   0  0  0  0  0  0  0  0  0  0  0  0
    6.3917   -5.8125    0.0000 C   0  0  0  0  0  0  0  0  0  0  0  0
    6.4042   -2.5417    0.0000 Cl  0  0  0  0  0  0  0  0  0  0  0  0
    3.5375   -2.5500    0.0000 Cl  0  0  0  0  0  0  0  0  0  0  0  0
    8.1500   -8.5917    0.0000 C   0  0  0  0  0  0  0  0  0  0  0  0
    9.4792   -7.6167    0.0000 C   0  0  0  0  0  0  0  0  0  0  0  0
    9.5750   -8.4375    0.0000 C   0  0  0  0  0  0  0  0  0  0  0  0
    8.9042   -8.9250    0.0000 C   0  0  0  0  0  0  0  0  0  0  0  0
  2 11  1  0  0  0  0
  3  6  2  0  0  0  0
  4  1  1  0  0  0  0
  5  1  1  0  0  0  0
  6 13  1  0  0  0  0
  7  3  1  0  0  0  0
  8  5  1  0  0  0  0
  9  4  1  0  0  0  0
 10  7  2  0  0  0  0
 11 13  2  0  0  0  0
 12  2  1  0  0  0  0
 13 18  1  0  0  0  0
 14 12  2  0  0  0  0
 15  1  1  0  0  0  0
 16  5  2  0  0  0  0
 17  4  2  0  0  0  0
 18 15  1  0  0  0  0
 19  7  1  0  0  0  0
 20 14  1  0  0  0  0
 21  9  1  0  0  0  0
 22  8  1  0  0  0  0
 23 22  2  0  0  0  0
 24 21  2  0  0  0  0
  9  8  2  0  0  0  0
 23 24  1  0  0  0  0
  2  3  1  0  0  0  0
 14 10  1  0  0  0  0
M  END
>  <Code> (P4061505)
P4061505

>  <Number of H-Donors> (P4061505)
0

>  <Number of H-Acceptors> (P4061505)
3

>  <Number of Rotatable bonds> (P4061505)
3

>  <CLogP> (P4061505)
3.000000000000000e+000

>  <Number of Rings> (P4061505)
4

>  <PSA> (P4061505)
5.470000000000000e+001

$$$$

  -ISIS-  11102212342D

 18 19  0  0  0  0  0  0  0  0999 V2000
   -2.3208    1.8208    0.0000 C   0  0  0  0  0  0  0  0  0  0  0  0
   -1.5125    1.6458    0.0000 N   0  0  0  0  0  0  0  0  0  0  0  0
   -1.4333    0.8333    0.0000 C   0  0  0  0  0  0  0  0  0  0  0  0
    1.4250   -0.8250    0.0000 C   0  0  3  0  0  0  0  0  0  0  0  0
   -2.1833    0.4875    0.0000 O   0  0  0  0  0  0  0  0  0  0  0  0
   -2.7333    1.1000    0.0000 C   0  0  0  0  0  0  0  0  0  0  0  0
   -2.6583    2.5625    0.0000 C   0  0  0  0  0  0  0  0  0  0  0  0
    0.7042   -0.4125    0.0000 C   0  0  0  0  0  0  0  0  0  0  0  0
   -0.7208    0.4125    0.0000 C   0  0  0  0  0  0  0  0  0  0  0  0
   -3.3083    2.6333    0.0000 O   0  0  0  0  0  0  0  0  0  0  0  0
    0.0000   -0.8250    0.0000 C   0  0  0  0  0  0  0  0  0  0  0  0
    0.7042    0.4125    0.0000 C   0  0  0  0  0  0  0  0  0  0  0  0
    0.0000    0.8250    0.0000 C   0  0  0  0  0  0  0  0  0  0  0  0
   -0.7208   -0.4125    0.0000 C   0  0  0  0  0  0  0  0  0  0  0  0
    2.0000   -0.4917    0.0000 F   0  0  0  0  0  0  0  0  0  0  0  0
    1.4250   -1.4792    0.0000 F   0  0  0  0  0  0  0  0  0  0  0  0
    2.0000   -1.1542    0.0000 F   0  0  0  0  0  0  0  0  0  0  0  0
   -2.2708    3.1083    0.0000 O   0  0  0  0  0  0  0  0  0  0  0  0
  2  1  1  0  0  0  0
  3  2  2  0  0  0  0
  4  8  1  0  0  0  0
  5  6  1  0  0  0  0
  6  1  2  0  0  0  0
  7  1  1  0  0  0  0
  8 11  2  0  0  0  0
  9  3  1  0  0  0  0
 10  7  2  0  0  0  0
 11 14  1  0  0  0  0
 12 13  2  0  0  0  0
 13  9  1  0  0  0  0
 14  9  2  0  0  0  0
 15  4  1  0  0  0  0
 16  4  1  0  0  0  0
 17  4  1  0  0  0  0
 18  7  1  0  0  0  0
  3  5  1  0  0  0  0
  8 12  1  0  0  0  0
M  END
>  <Code> (P3656175)
P3656175

>  <Number of H-Donors> (P3656175)
1

>  <Number of H-Acceptors> (P3656175)
3

>  <Number of Rotatable bonds> (P3656175)
3

>  <CLogP> (P3656175)
2.700000000000000e+000

>  <Number of Rings> (P3656175)
2

>  <PSA> (P3656175)
6.330000000000000e+001

$$$$

  -ISIS-  11102212342D

 29 32  0  0  0  0  0  0  0  0999 V2000
    6.1417   -1.0167    0.0000 C   0  0  0  0  0  0  0  0  0  0  0  0
    5.4750   -0.5375    0.0000 N   0  0  3  0  0  0  0  0  0  0  0  0
    5.8792   -1.8042    0.0000 C   0  0  0  0  0  0  0  0  0  0  0  0
    4.8125   -1.0167    0.0000 N   0  0  0  0  0  0  0  0  0  0  0  0
    6.9542   -0.8542    0.0000 N   0  0  0  0  0  0  0  0  0  0  0  0
    5.0625   -1.8042    0.0000 C   0  0  0  0  0  0  0  0  0  0  0  0
    6.4292   -2.4250    0.0000 C   0  0  0  0  0  0  0  0  0  0  0  0
    7.5042   -1.4750    0.0000 C   0  0  0  0  0  0  0  0  0  0  0  0
    7.2417   -2.2625    0.0000 C   0  0  0  0  0  0  0  0  0  0  0  0
    8.3167   -1.3125    0.0000 C   0  0  0  0  0  0  0  0  0  0  0  0
    6.1667   -3.2042    0.0000 C   0  0  0  0  0  0  0  0  0  0  0  0
    5.4667    0.2875    0.0000 C   0  0  0  0  0  0  0  0  0  0  0  0
    8.8625   -1.9292    0.0000 O   0  0  0  0  0  0  0  0  0  0  0  0
    5.3625   -3.3667    0.0000 C   0  0  0  0  0  0  0  0  0  0  0  0
    6.7167   -3.8167    0.0000 C   0  0  0  0  0  0  0  0  0  0  0  0
    8.5750   -0.5292    0.0000 O   0  0  0  0  0  0  0  0  0  0  0  0
    5.6417   -4.7667    0.0000 C   0  0  0  0  0  0  0  0  0  0  0  0
    4.5792   -2.4750    0.0000 C   0  0  0  0  0  0  0  0  0  0  0  0
    6.4542   -4.6042    0.0000 C   0  0  0  0  0  0  0  0  0  0  0  0
    5.1000   -4.1500    0.0000 C   0  0  0  0  0  0  0  0  0  0  0  0
    5.3792   -5.5542    0.0000 O   0  0  0  0  0  0  0  0  0  0  0  0
    6.1792    0.7083    0.0000 C   0  0  0  0  0  0  0  0  0  0  0  0
    4.7542    0.6958    0.0000 C   0  0  0  0  0  0  0  0  0  0  0  0
    9.3667   -0.3125    0.0000 C   0  0  0  0  0  0  0  0  0  0  0  0
    4.5542   -5.5542    0.0000 C   0  0  0  0  0  0  0  0  0  0  0  0
    9.3667    0.5125    0.0000 C   0  0  0  0  0  0  0  0  0  0  0  0
    6.1750    1.5333    0.0000 C   0  0  0  0  0  0  0  0  0  0  0  0
    4.7417    1.5125    0.0000 C   0  0  0  0  0  0  0  0  0  0  0  0
    5.4542    1.9375    0.0000 C   0  0  0  0  0  0  0  0  0  0  0  0
  2  1  1  0  0  0  0
  3  1  2  0  0  0  0
  4  2  1  0  0  0  0
  5  1  1  0  0  0  0
  6  3  1  0  0  0  0
  7  3  1  0  0  0  0
  8  5  2  0  0  0  0
  9  8  1  0  0  0  0
 10  8  1  0  0  0  0
 11  7  1  0  0  0  0
 12  2  1  0  0  0  0
 13 10  2  0  0  0  0
 14 11  2  0  0  0  0
 15 11  1  0  0  0  0
 16 10  1  0  0  0  0
 17 19  1  0  0  0  0
 18  6  1  0  0  0  0
 19 15  2  0  0  0  0
 20 14  1  0  0  0  0
 21 17  1  0  0  0  0
 22 12  2  0  0  0  0
 23 12  1  0  0  0  0
 24 16  1  0  0  0  0
 25 21  1  0  0  0  0
 26 24  1  0  0  0  0
 27 22  1  0  0  0  0
 28 23  2  0  0  0  0
 29 28  1  0  0  0  0
  6  4  2  0  0  0  0
  9  7  2  0  0  0  0
 17 20  2  0  0  0  0
 29 27  2  0  0  0  0
M  END
>  <Code> (P3644563)
P3644563

>  <Number of H-Donors> (P3644563)
0

>  <Number of H-Acceptors> (P3644563)
5

>  <Number of Rotatable bonds> (P3644563)
6

>  <CLogP> (P3644563)
4.700000000000000e+000

>  <Number of Rings> (P3644563)
4

>  <PSA> (P3644563)
6.619999999999999e+001

$$$$

  -ISIS-  11102212342D

 15 16  0  0  0  0  0  0  0  0999 V2000
    6.4000   -6.3500    0.0000 C   0  0  0  0  0  0  0  0  0  0  0  0
    6.7292   -5.6000    0.0000 N   0  0  0  0  0  0  0  0  0  0  0  0
    5.4042   -5.4625    0.0000 N   0  0  3  0  0  0  0  0  0  0  0  0
    6.1167   -5.0500    0.0000 C   0  0  0  0  0  0  0  0  0  0  0  0
    5.5792   -6.2667    0.0000 C   0  0  0  0  0  0  0  0  0  0  0  0
    4.6875   -5.0500    0.0000 C   0  0  0  0  0  0  0  0  0  0  0  0
    6.8125   -7.0625    0.0000 C   0  0  0  0  0  0  0  0  0  0  0  0
    6.1167   -4.2167    0.0000 C   0  0  0  0  0  0  0  0  0  0  0  0
    4.6875   -4.2250    0.0000 C   0  0  0  0  0  0  0  0  0  0  0  0
    5.4000   -3.8042    0.0000 C   0  0  0  0  0  0  0  0  0  0  0  0
    7.6417   -7.0667    0.0000 O   0  0  0  0  0  0  0  0  0  0  0  0
    6.4042   -7.7792    0.0000 O   0  0  0  0  0  0  0  0  0  0  0  0
    3.9750   -3.8125    0.0000 C   0  0  0  0  0  0  0  0  0  0  0  0
    5.5792   -7.7875    0.0000 C   0  0  0  0  0  0  0  0  0  0  0  0
    5.1750   -8.5042    0.0000 C   0  0  0  0  0  0  0  0  0  0  0  0
  2  1  1  0  0  0  0
  3  5  1  0  0  0  0
  4  2  2  0  0  0  0
  5  1  2  0  0  0  0
  6  3  1  0  0  0  0
  7  1  1  0  0  0  0
  8  4  1  0  0  0  0
  9  6  2  0  0  0  0
 10  8  2  0  0  0  0
 11  7  2  0  0  0  0
 12  7  1  0  0  0  0
 13  9  1  0  0  0  0
 14 12  1  0  0  0  0
 15 14  1  0  0  0  0
  4  3  1  0  0  0  0
 10  9  1  0  0  0  0
M  END
>  <Code> (P3644535)
P3644535

>  <Number of H-Donors> (P3644535)
0

>  <Number of H-Acceptors> (P3644535)
3

>  <Number of Rotatable bonds> (P3644535)
3

>  <CLogP> (P3644535)
1.700000000000000e+000

>  <Number of Rings> (P3644535)
2

>  <PSA> (P3644535)
4.359999999999999e+001

$$$$

  -ISIS-  11102212342D

 19 21  0  0  0  0  0  0  0  0999 V2000
    0.5292   -3.6417    0.0000 N   0  0  0  0  0  0  0  0  0  0  0  0
    0.6292   -2.8292    0.0000 C   0  0  0  0  0  0  0  0  0  0  0  0
   -0.2833   -3.8042    0.0000 C   0  0  0  0  0  0  0  0  0  0  0  0
   -0.1208   -2.4792    0.0000 O   0  0  0  0  0  0  0  0  0  0  0  0
    3.4917   -1.2042    0.0000 C   0  0  3  0  0  0  0  0  0  0  0  0
   -0.6833   -3.0875    0.0000 C   0  0  0  0  0  0  0  0  0  0  0  0
    1.3542   -2.4292    0.0000 C   0  0  0  0  0  0  0  0  0  0  0  0
    2.7917   -1.6167    0.0000 C   0  0  0  0  0  0  0  0  0  0  0  0
   -0.7000   -4.5250    0.0000 N   0  0  0  0  0  0  0  0  0  0  0  0
    2.0542   -2.8542    0.0000 C   0  0  0  0  0  0  0  0  0  0  0  0
    1.3667   -1.6042    0.0000 C   0  0  0  0  0  0  0  0  0  0  0  0
    2.0917   -1.2042    0.0000 C   0  0  0  0  0  0  0  0  0  0  0  0
    2.7792   -2.4500    0.0000 C   0  0  0  0  0  0  0  0  0  0  0  0
    3.9125   -1.9167    0.0000 F   0  0  0  0  0  0  0  0  0  0  0  0
    4.2042   -0.7917    0.0000 F   0  0  0  0  0  0  0  0  0  0  0  0
    3.0792   -0.5000    0.0000 F   0  0  0  0  0  0  0  0  0  0  0  0
   -1.5083   -3.0792    0.0000 C   0  0  0  0  0  0  0  0  0  0  0  0
   -1.5333   -4.5042    0.0000 C   0  0  0  0  0  0  0  0  0  0  0  0
   -1.9333   -3.7792    0.0000 C   0  0  0  0  0  0  0  0  0  0  0  0
  2  1  2  0  0  0  0
  3  1  1  0  0  0  0
  4  2  1  0  0  0  0
  5  8  1  0  0  0  0
  6  3  1  0  0  0  0
  7  2  1  0  0  0  0
  8 12  1  0  0  0  0
  9  3  2  0  0  0  0
 10  7  2  0  0  0  0
 11  7  1  0  0  0  0
 12 11  2  0  0  0  0
 13 10  1  0  0  0  0
 14  5  1  0  0  0  0
 15  5  1  0  0  0  0
 16  5  1  0  0  0  0
 17  6  2  0  0  0  0
 18  9  1  0  0  0  0
 19 18  2  0  0  0  0
  6  4  1  0  0  0  0
 19 17  1  0  0  0  0
  8 13  2  0  0  0  0
M  END
>  <Code> (P3619993)
P3619993

>  <Number of H-Donors> (P3619993)
0

>  <Number of H-Acceptors> (P3619993)
2

>  <Number of Rotatable bonds> (P3619993)
2

>  <CLogP> (P3619993)
3.300000000000000e+000

>  <Number of Rings> (P3619993)
3

>  <PSA> (P3619993)
3.890000000000000e+001

$$$$

  -ISIS-  11102212342D

 16 17  0  0  0  0  0  0  0  0999 V2000
    6.3417   -3.0292    0.0000 C   0  0  0  0  0  0  0  0  0  0  0  0
    7.0542   -3.4417    0.0000 N   0  0  0  0  0  0  0  0  0  0  0  0
    6.3417   -2.2042    0.0000 N   0  0  0  0  0  0  0  0  0  0  0  0
    7.0542   -1.7917    0.0000 C   0  0  0  0  0  0  0  0  0  0  0  0
    7.7625   -2.2042    0.0000 C   0  0  0  0  0  0  0  0  0  0  0  0
    7.7625   -3.0292    0.0000 C   0  0  0  0  0  0  0  0  0  0  0  0
    7.0542   -0.9542    0.0000 C   0  0  0  0  0  0  0  0  0  0  0  0
    5.6292   -3.4417    0.0000 C   0  0  0  0  0  0  0  0  0  0  0  0
    6.3417   -0.5500    0.0000 O   0  0  0  0  0  0  0  0  0  0  0  0
    7.7667   -0.5500    0.0000 O   0  0  0  0  0  0  0  0  0  0  0  0
    8.4792   -3.4417    0.0000 O   0  0  0  0  0  0  0  0  0  0  0  0
    5.6292   -4.2667    0.0000 C   0  0  0  0  0  0  0  0  0  0  0  0
    4.9167   -3.0375    0.0000 C   0  0  0  0  0  0  0  0  0  0  0  0
    4.9167   -4.6792    0.0000 C   0  0  0  0  0  0  0  0  0  0  0  0
    4.2042   -3.4417    0.0000 C   0  0  0  0  0  0  0  0  0  0  0  0
    4.2042   -4.2667    0.0000 C   0  0  0  0  0  0  0  0  0  0  0  0
  2  1  1  0  0  0  0
  3  1  2  0  0  0  0
  4  3  1  0  0  0  0
  5  4  2  0  0  0  0
  6  2  2  0  0  0  0
  7  4  1  0  0  0  0
  8  1  1  0  0  0  0
  9  7  2  0  0  0  0
 10  7  1  0  0  0  0
 11  6  1  0  0  0  0
 12  8  1  0  0  0  0
 13  8  2  0  0  0  0
 14 12  2  0  0  0  0
 15 13  1  0  0  0  0
 16 15  2  0  0  0  0
  6  5  1  0  0  0  0
 16 14  1  0  0  0  0
M  END
>  <Code> (P3524400)
P3524400

>  <Number of H-Donors> (P3524400)
2

>  <Number of H-Acceptors> (P3524400)
5

>  <Number of Rotatable bonds> (P3524400)
2

>  <CLogP> (P3524400)
2.000000000000000e+000

>  <Number of Rings> (P3524400)
2

>  <PSA> (P3524400)
8.330000000000000e+001

$$$$

  -ISIS-  11102212342D

 18 20  0  0  0  0  0  0  0  0999 V2000
    5.9625   -5.1792    0.0000 N   0  0  0  0  0  0  0  0  0  0  0  0
    5.3417   -4.6292    0.0000 C   0  0  0  0  0  0  0  0  0  0  0  0
    4.6292   -5.0500    0.0000 N   0  0  3  0  0  0  0  0  0  0  0  0
    5.6292   -5.9417    0.0000 C   0  0  0  0  0  0  0  0  0  0  0  0
    4.8042   -5.8542    0.0000 C   0  0  0  0  0  0  0  0  0  0  0  0
    5.3417   -3.8042    0.0000 C   0  0  0  0  0  0  0  0  0  0  0  0
    6.0417   -6.6542    0.0000 C   0  0  0  0  0  0  0  0  0  0  0  0
    7.2792   -7.3542    0.0000 C   0  0  0  0  0  0  0  0  0  0  0  0
    6.8667   -6.6417    0.0000 C   0  0  0  0  0  0  0  0  0  0  0  0
    3.9167   -4.6292    0.0000 C   0  0  0  0  0  0  0  0  0  0  0  0
    3.9167   -3.8042    0.0000 C   0  0  0  0  0  0  0  0  0  0  0  0
    4.6292   -3.3917    0.0000 C   0  0  0  0  0  0  0  0  0  0  0  0
    6.8667   -8.0792    0.0000 C   0  0  0  0  0  0  0  0  0  0  0  0
    5.6292   -7.3667    0.0000 C   0  0  0  0  0  0  0  0  0  0  0  0
    6.0417   -8.0792    0.0000 C   0  0  0  0  0  0  0  0  0  0  0  0
    8.1042   -7.3500    0.0000 Cl  0  0  0  0  0  0  0  0  0  0  0  0
    7.2875   -8.7917    0.0000 Cl  0  0  0  0  0  0  0  0  0  0  0  0
    6.0542   -3.3875    0.0000 C   0  0  0  0  0  0  0  0  0  0  0  0
  2  1  2  0  0  0  0
  3  2  1  0  0  0  0
  4  1  1  0  0  0  0
  5  4  2  0  0  0  0
  6  2  1  0  0  0  0
  7  4  1  0  0  0  0
  8  9  2  0  0  0  0
  9  7  1  0  0  0  0
 10  3  1  0  0  0  0
 11 12  1  0  0  0  0
 12  6  2  0  0  0  0
 13 15  2  0  0  0  0
 14  7  2  0  0  0  0
 15 14  1  0  0  0  0
 16  8  1  0  0  0  0
 17 13  1  0  0  0  0
 18  6  1  0  0  0  0
  5  3  1  0  0  0  0
 10 11  2  0  0  0  0
 13  8  1  0  0  0  0
M  END
>  <Code> (P3463890)
P3463890

>  <Number of H-Donors> (P3463890)
0

>  <Number of H-Acceptors> (P3463890)
1

>  <Number of Rotatable bonds> (P3463890)
1

>  <CLogP> (P3463890)
4.300000000000000e+000

>  <Number of Rings> (P3463890)
3

>  <PSA> (P3463890)
1.730000000000000e+001

$$$$

  -ISIS-  11102212342D

 13 14  0  0  0  0  0  0  0  0999 V2000
    1.6625   -3.6792    0.0000 C   0  0  0  0  0  0  0  0  0  0  0  0
    0.6042   -2.8417    0.0000 C   0  0  0  0  0  0  0  0  0  0  0  0
    1.3000   -2.3792    0.0000 N   0  0  0  0  0  0  0  0  0  0  0  0
    0.8292   -3.6417    0.0000 S   0  0  0  0  0  0  0  0  0  0  0  0
    1.9542   -2.9125    0.0000 C   0  0  0  0  0  0  0  0  0  0  0  0
    2.1125   -4.3750    0.0000 C   0  0  0  0  0  0  0  0  0  0  0  0
   -0.1833   -2.6292    0.0000 N   0  0  0  0  0  0  0  0  0  0  0  0
   -0.4000   -1.8375    0.0000 C   0  0  3  0  0  0  0  0  0  0  0  0
   -1.1708   -1.5375    0.0000 C   0  0  0  0  0  0  0  0  0  0  0  0
   -0.5333   -1.0167    0.0000 C   0  0  0  0  0  0  0  0  0  0  0  0
    1.7417   -5.1167    0.0000 O   0  0  0  0  0  0  0  0  0  0  0  0
    2.9417   -4.3292    0.0000 O   0  0  0  0  0  0  0  0  0  0  0  0
    2.7625   -2.7042    0.0000 C   0  0  0  0  0  0  0  0  0  0  0  0
  2  4  1  0  0  0  0
  3  5  1  0  0  0  0
  4  1  1  0  0  0  0
  5  1  2  0  0  0  0
  6  1  1  0  0  0  0
  7  2  1  0  0  0  0
  8  7  1  0  0  0  0
  9  8  1  0  0  0  0
 10  8  1  0  0  0  0
 11  6  2  0  0  0  0
 12  6  1  0  0  0  0
 13  5  1  0  0  0  0
  3  2  2  0  0  0  0
 10  9  1  0  0  0  0
M  END
>  <Code> (P3463510)
P3463510

>  <Number of H-Donors> (P3463510)
2

>  <Number of H-Acceptors> (P3463510)
4

>  <Number of Rotatable bonds> (P3463510)
3

>  <CLogP> (P3463510)
9.000000000000000e-001

>  <Number of Rings> (P3463510)
2

>  <PSA> (P3463510)
9.050000000000000e+001

$$$$

  -ISIS-  11102212342D

 26 28  0  0  0  0  0  0  0  0999 V2000
    1.0042    0.8958    0.0000 C   0  0  0  0  0  0  0  0  0  0  0  0
    1.0167    0.0708    0.0000 C   0  0  0  0  0  0  0  0  0  0  0  0
    1.7292   -0.3500    0.0000 C   0  0  0  0  0  0  0  0  0  0  0  0
    1.7292    1.3083    0.0000 N   0  0  0  0  0  0  0  0  0  0  0  0
   -0.2625    0.4708    0.0000 N   0  0  0  0  0  0  0  0  0  0  0  0
    0.2250    1.1458    0.0000 O   0  0  0  0  0  0  0  0  0  0  0  0
    2.4375    0.8958    0.0000 C   0  0  0  0  0  0  0  0  0  0  0  0
    2.4375    0.0708    0.0000 C   0  0  0  0  0  0  0  0  0  0  0  0
    1.7292   -1.1667    0.0000 C   0  0  0  0  0  0  0  0  0  0  0  0
    0.2292   -0.1917    0.0000 C   0  0  0  0  0  0  0  0  0  0  0  0
    1.0167   -1.5792    0.0000 O   0  0  0  0  0  0  0  0  0  0  0  0
    3.1542    1.3125    0.0000 C   0  0  0  0  0  0  0  0  0  0  0  0
    2.4375   -1.5792    0.0000 N   0  0  0  0  0  0  0  0  0  0  0  0
    3.8542   -1.5875    0.0000 C   0  0  0  0  0  0  0  0  0  0  0  0
   -0.0250   -0.9792    0.0000 C   0  0  0  0  0  0  0  0  0  0  0  0
    5.2875   -1.5917    0.0000 O   0  0  0  0  0  0  0  0  0  0  0  0
    3.1500   -1.1667    0.0000 C   0  0  0  0  0  0  0  0  0  0  0  0
    4.5792   -1.1792    0.0000 C   0  0  0  0  0  0  0  0  0  0  0  0
    3.8667    0.8958    0.0000 C   0  0  0  0  0  0  0  0  0  0  0  0
    3.1500    2.1458    0.0000 C   0  0  0  0  0  0  0  0  0  0  0  0
    6.0000   -1.1917    0.0000 C   0  0  3  0  0  0  0  0  0  0  0  0
    6.7125   -1.6042    0.0000 C   0  0  0  0  0  0  0  0  0  0  0  0
    6.0000   -0.3667    0.0000 C   0  0  0  0  0  0  0  0  0  0  0  0
    3.8542    2.5458    0.0000 C   0  0  0  0  0  0  0  0  0  0  0  0
    4.5792    1.3125    0.0000 C   0  0  0  0  0  0  0  0  0  0  0  0
    4.5792    2.1458    0.0000 C   0  0  0  0  0  0  0  0  0  0  0  0
  2  1  2  0  0  0  0
  3  2  1  0  0  0  0
  4  1  1  0  0  0  0
  5  6  1  0  0  0  0
  6  1  1  0  0  0  0
  7  4  2  0  0  0  0
  8  7  1  0  0  0  0
  9  3  1  0  0  0  0
 10  2  1  0  0  0  0
 11  9  2  0  0  0  0
 12  7  1  0  0  0  0
 13  9  1  0  0  0  0
 14 17  1  0  0  0  0
 15 10  1  0  0  0  0
 16 18  1  0  0  0  0
 17 13  1  0  0  0  0
 18 14  1  0  0  0  0
 19 12  2  0  0  0  0
 20 12  1  0  0  0  0
 21 16  1  0  0  0  0
 22 21  1  0  0  0  0
 23 21  1  0  0  0  0
 24 20  2  0  0  0  0
 25 19  1  0  0  0  0
 26 24  1  0  0  0  0
  5 10  2  0  0  0  0
  3  8  2  0  0  0  0
 25 26  2  0  0  0  0
M  END
>  <Code> (P3463197)
P3463197

>  <Number of H-Donors> (P3463197)
1

>  <Number of H-Acceptors> (P3463197)
4

>  <Number of Rotatable bonds> (P3463197)
7

>  <CLogP> (P3463197)
2.600000000000000e+000

>  <Number of Rings> (P3463197)
3

>  <PSA> (P3463197)
7.730000000000001e+001

$$$$

  -ISIS-  11102212342D

 20 23  0  0  0  0  0  0  0  0999 V2000
    3.5750   -0.1542    0.0000 C   0  0  2  0  0  0  0  0  0  0  0  0
    3.5750   -1.0042    0.0000 C   0  0  3  0  0  0  0  0  0  0  0  0
    2.8542   -1.3917    0.0000 C   0  0  3  0  0  0  0  0  0  0  0  0
    2.1542   -1.0042    0.0000 C   0  0  3  0  0  0  0  0  0  0  0  0
    1.4250   -1.3917    0.0000 C   0  0  0  0  0  0  0  0  0  0  0  0
    1.4250   -2.2417    0.0000 C   0  0  0  0  0  0  0  0  0  0  0  0
    2.8542    0.2375    0.0000 C   0  0  0  0  0  0  0  0  0  0  0  0
    2.1542   -0.1542    0.0000 C   0  0  0  0  0  0  0  0  0  0  0  0
    2.8542   -2.2417    0.0000 C   0  0  0  0  0  0  0  0  0  0  0  0
    4.3917   -1.2292    0.0000 C   0  0  0  0  0  0  0  0  0  0  0  0
    0.7167   -1.0042    0.0000 C   0  0  0  0  0  0  0  0  0  0  0  0
    4.3917    0.0875    0.0000 C   0  0  3  0  0  0  0  0  0  0  0  0
    2.1542   -2.6500    0.0000 C   0  0  0  0  0  0  0  0  0  0  0  0
    0.7167   -2.6500    0.0000 C   0  0  0  0  0  0  0  0  0  0  0  0
    4.8667   -0.5625    0.0000 C   0  0  0  0  0  0  0  0  0  0  0  0
   -0.0083   -2.2417    0.0000 C   0  0  0  0  0  0  0  0  0  0  0  0
   -0.0083   -1.3917    0.0000 C   0  0  0  0  0  0  0  0  0  0  0  0
    3.5750    0.7083    0.0000 C   0  0  0  0  0  0  0  0  0  0  0  0
    4.5792    0.8833    0.0000 O   0  0  0  0  0  0  0  0  0  0  0  0
   -0.7333   -2.6875    0.0000 O   0  0  0  0  0  0  0  0  0  0  0  0
  2  1  1  0  0  0  0
  3  2  1  0  0  0  0
  4  8  1  0  0  0  0
  5  4  1  0  0  0  0
  6  5  2  0  0  0  0
  7  1  1  0  0  0  0
  8  7  1  0  0  0  0
  9  3  1  0  0  0  0
 10  2  1  0  0  0  0
 11  5  1  0  0  0  0
 12  1  1  0  0  0  0
 13  9  1  0  0  0  0
 14  6  1  0  0  0  0
 15 12  1  0  0  0  0
 16 17  1  0  0  0  0
 17 11  2  0  0  0  0
  1 18  1  1  0  0  0
 19 12  1  6  0  0  0
 20 16  1  0  0  0  0
 15 10  1  0  0  0  0
  3  4  1  0  0  0  0
  6 13  1  0  0  0  0
 14 16  2  0  0  0  0
M  END
>  <Code> (P3462660)
P3462660

>  <Number of H-Donors> (P3462660)
2

>  <Number of H-Acceptors> (P3462660)
2

>  <Number of Rotatable bonds> (P3462660)
0

>  <CLogP> (P3462660)
3.800000000000000e+000

>  <Number of Rings> (P3462660)
4

>  <PSA> (P3462660)
4.050000000000000e+001

$$$$

  -ISIS-  11102212342D

 31 35  0  0  0  0  0  0  0  0999 V2000
    4.6542   -5.1625    0.0000 C   0  0  0  0  0  0  0  0  0  0  0  0
    3.9375   -5.5667    0.0000 C   0  0  0  0  0  0  0  0  0  0  0  0
    4.6542   -4.3292    0.0000 C   0  0  0  0  0  0  0  0  0  0  0  0
    3.2250   -5.1542    0.0000 C   0  0  0  0  0  0  0  0  0  0  0  0
    1.8000   -5.1625    0.0000 C   0  0  0  0  0  0  0  0  0  0  0  0
    3.2250   -4.3292    0.0000 C   0  0  0  0  0  0  0  0  0  0  0  0
    1.7917   -4.3375    0.0000 C   0  0  0  0  0  0  0  0  0  0  0  0
    1.0125   -5.4167    0.0000 C   0  0  0  0  0  0  0  0  0  0  0  0
    3.9375   -3.9125    0.0000 O   0  0  0  0  0  0  0  0  0  0  0  0
    0.5250   -4.7417    0.0000 C   0  0  0  0  0  0  0  0  0  0  0  0
    1.0125   -4.0875    0.0000 O   0  0  0  0  0  0  0  0  0  0  0  0
    6.8042   -6.4042    0.0000 N   0  0  3  0  0  0  0  0  0  0  0  0
    2.5042   -5.5667    0.0000 C   0  0  0  0  0  0  0  0  0  0  0  0
    2.5042   -3.9167    0.0000 C   0  0  0  0  0  0  0  0  0  0  0  0
    6.0750   -6.8042    0.0000 C   0  0  0  0  0  0  0  0  0  0  0  0
    7.5167   -6.8167    0.0000 C   0  0  0  0  0  0  0  0  0  0  0  0
    5.3667   -5.5667    0.0000 C   0  0  0  0  0  0  0  0  0  0  0  0
    8.2250   -6.4042    0.0000 C   0  0  0  0  0  0  0  0  0  0  0  0
    5.3750   -3.9167    0.0000 O   0  0  0  0  0  0  0  0  0  0  0  0
    6.8042   -5.5875    0.0000 C   0  0  0  0  0  0  0  0  0  0  0  0
    5.3667   -6.4000    0.0000 C   0  0  0  0  0  0  0  0  0  0  0  0
    8.2250   -5.5875    0.0000 C   0  0  0  0  0  0  0  0  0  0  0  0
    6.0750   -7.6292    0.0000 O   0  0  0  0  0  0  0  0  0  0  0  0
    7.5167   -5.1792    0.0000 C   0  0  0  0  0  0  0  0  0  0  0  0
    3.9375   -6.4000    0.0000 C   0  0  0  0  0  0  0  0  0  0  0  0
    0.7625   -6.2042    0.0000 C   0  0  0  0  0  0  0  0  0  0  0  0
   -0.3000   -4.7542    0.0000 C   0  0  0  0  0  0  0  0  0  0  0  0
    8.9292   -6.8250    0.0000 C   0  0  0  0  0  0  0  0  0  0  0  0
    8.9292   -5.1667    0.0000 C   0  0  0  0  0  0  0  0  0  0  0  0
    9.6500   -6.4042    0.0000 C   0  0  0  0  0  0  0  0  0  0  0  0
    9.6500   -5.5875    0.0000 C   0  0  0  0  0  0  0  0  0  0  0  0
  2  1  2  0  0  0  0
  3  1  1  0  0  0  0
  4  2  1  0  0  0  0
  5 13  1  0  0  0  0
  6  9  1  0  0  0  0
  7 14  1  0  0  0  0
  8  5  1  0  0  0  0
  9  3  1  0  0  0  0
 10  8  2  0  0  0  0
 11  7  1  0  0  0  0
 12 15  1  0  0  0  0
 13  4  2  0  0  0  0
 14  6  2  0  0  0  0
 15 21  1  0  0  0  0
 16 12  1  0  0  0  0
 17  1  1  0  0  0  0
 18 16  1  0  0  0  0
 19  3  2  0  0  0  0
 20 12  1  0  0  0  0
 21 17  1  0  0  0  0
 22 24  1  0  0  0  0
 23 15  2  0  0  0  0
 24 20  1  0  0  0  0
 25  2  1  0  0  0  0
 26  8  1  0  0  0  0
 27 10  1  0  0  0  0
 28 18  2  0  0  0  0
 29 22  2  0  0  0  0
 30 28  1  0  0  0  0
 31 29  1  0  0  0  0
  6  4  1  0  0  0  0
  5  7  2  0  0  0  0
 11 10  1  0  0  0  0
 18 22  1  0  0  0  0
 30 31  2  0  0  0  0
M  END
>  <Code> (P3461938)
P3461938

>  <Number of H-Donors> (P3461938)
0

>  <Number of H-Acceptors> (P3461938)
3

>  <Number of Rotatable bonds> (P3461938)
3

>  <CLogP> (P3461938)
4.800000000000000e+000

>  <Number of Rings> (P3461938)
5

>  <PSA> (P3461938)
5.980000000000000e+001

$$$$

  -ISIS-  11102212342D

 24 26  0  0  0  0  0  0  0  0999 V2000
    1.0042    0.8958    0.0000 C   0  0  0  0  0  0  0  0  0  0  0  0
    1.0167    0.0708    0.0000 C   0  0  0  0  0  0  0  0  0  0  0  0
    1.7292   -0.3500    0.0000 C   0  0  0  0  0  0  0  0  0  0  0  0
    1.7292    1.3083    0.0000 N   0  0  0  0  0  0  0  0  0  0  0  0
   -0.2583    0.4708    0.0000 N   0  0  0  0  0  0  0  0  0  0  0  0
    0.2250    1.1458    0.0000 O   0  0  0  0  0  0  0  0  0  0  0  0
    2.4417    0.8958    0.0000 C   0  0  0  0  0  0  0  0  0  0  0  0
    2.4417    0.0708    0.0000 C   0  0  0  0  0  0  0  0  0  0  0  0
    1.7292   -1.1667    0.0000 C   0  0  0  0  0  0  0  0  0  0  0  0
    0.2292   -0.1917    0.0000 C   0  0  0  0  0  0  0  0  0  0  0  0
    1.0167   -1.5792    0.0000 O   0  0  0  0  0  0  0  0  0  0  0  0
    3.1542    1.3083    0.0000 C   0  0  0  0  0  0  0  0  0  0  0  0
    2.4417   -1.5792    0.0000 N   0  0  0  0  0  0  0  0  0  0  0  0
    3.8542   -1.5875    0.0000 C   0  0  0  0  0  0  0  0  0  0  0  0
   -0.0250   -0.9792    0.0000 C   0  0  0  0  0  0  0  0  0  0  0  0
    5.2792   -1.5917    0.0000 O   0  0  0  0  0  0  0  0  0  0  0  0
    3.1500   -1.1667    0.0000 C   0  0  0  0  0  0  0  0  0  0  0  0
    4.5750   -1.1792    0.0000 C   0  0  0  0  0  0  0  0  0  0  0  0
    3.8667    0.8958    0.0000 C   0  0  0  0  0  0  0  0  0  0  0  0
    3.1500    2.1458    0.0000 C   0  0  0  0  0  0  0  0  0  0  0  0
    6.0000   -1.1917    0.0000 C   0  0  0  0  0  0  0  0  0  0  0  0
    3.8542    2.5458    0.0000 C   0  0  0  0  0  0  0  0  0  0  0  0
    4.5792    1.3083    0.0000 C   0  0  0  0  0  0  0  0  0  0  0  0
    4.5792    2.1458    0.0000 C   0  0  0  0  0  0  0  0  0  0  0  0
  2  1  2  0  0  0  0
  3  2  1  0  0  0  0
  4  1  1  0  0  0  0
  5  6  1  0  0  0  0
  6  1  1  0  0  0  0
  7  4  2  0  0  0  0
  8  7  1  0  0  0  0
  9  3  1  0  0  0  0
 10  2  1  0  0  0  0
 11  9  2  0  0  0  0
 12  7  1  0  0  0  0
 13  9  1  0  0  0  0
 14 17  1  0  0  0  0
 15 10  1  0  0  0  0
 16 18  1  0  0  0  0
 17 13  1  0  0  0  0
 18 14  1  0  0  0  0
 19 12  2  0  0  0  0
 20 12  1  0  0  0  0
 21 16  1  0  0  0  0
 22 20  2  0  0  0  0
 23 19  1  0  0  0  0
 24 22  1  0  0  0  0
  5 10  2  0  0  0  0
  3  8  2  0  0  0  0
 23 24  2  0  0  0  0
M  END
>  <Code> (P3461412)
P3461412

>  <Number of H-Donors> (P3461412)
1

>  <Number of H-Acceptors> (P3461412)
4

>  <Number of Rotatable bonds> (P3461412)
6

>  <CLogP> (P3461412)
1.900000000000000e+000

>  <Number of Rings> (P3461412)
3

>  <PSA> (P3461412)
7.730000000000001e+001

$$$$

  -ISIS-  11102212342D

 24 26  0  0  0  0  0  0  0  0999 V2000
    5.3042   -0.4792    0.0000 C   0  0  0  0  0  0  0  0  0  0  0  0
    8.1417   -0.4917    0.0000 C   0  0  0  0  0  0  0  0  0  0  0  0
    5.3042    0.3458    0.0000 C   0  0  0  0  0  0  0  0  0  0  0  0
    4.5792   -0.9000    0.0000 C   0  0  0  0  0  0  0  0  0  0  0  0
    8.2292    0.3250    0.0000 S   0  0  0  0  0  0  0  0  0  0  0  0
    4.5792    0.7625    0.0000 O   0  0  0  0  0  0  0  0  0  0  0  0
    3.8667    0.3458    0.0000 C   0  0  0  0  0  0  0  0  0  0  0  0
    8.8917   -0.8292    0.0000 N   0  0  0  0  0  0  0  0  0  0  0  0
    3.8625   -0.4792    0.0000 C   0  0  0  0  0  0  0  0  0  0  0  0
    9.4500   -0.2167    0.0000 N   0  0  0  0  0  0  0  0  0  0  0  0
    7.4375   -0.9042    0.0000 N   0  0  0  0  0  0  0  0  0  0  0  0
    9.0417    0.4875    0.0000 C   0  0  0  0  0  0  0  0  0  0  0  0
    6.7250   -0.4792    0.0000 C   0  0  0  0  0  0  0  0  0  0  0  0
    6.0125   -0.9000    0.0000 C   0  0  0  0  0  0  0  0  0  0  0  0
    3.1500    0.7583    0.0000 C   0  0  0  0  0  0  0  0  0  0  0  0
    3.1500   -0.8917    0.0000 C   0  0  0  0  0  0  0  0  0  0  0  0
    6.0167    0.7583    0.0000 O   0  0  0  0  0  0  0  0  0  0  0  0
    6.7250    0.3333    0.0000 O   0  0  0  0  0  0  0  0  0  0  0  0
    2.4417    0.3375    0.0000 C   0  0  0  0  0  0  0  0  0  0  0  0
    2.4417   -0.4792    0.0000 C   0  0  0  0  0  0  0  0  0  0  0  0
    4.5792   -1.7167    0.0000 C   0  0  0  0  0  0  0  0  0  0  0  0
    1.7292    0.7583    0.0000 O   0  0  0  0  0  0  0  0  0  0  0  0
    9.3667    1.2458    0.0000 C   0  0  0  0  0  0  0  0  0  0  0  0
    1.0167    0.3458    0.0000 C   0  0  0  0  0  0  0  0  0  0  0  0
  2 11  1  0  0  0  0
  3  1  1  0  0  0  0
  4  1  2  0  0  0  0
  5  2  1  0  0  0  0
  6  3  1  0  0  0  0
  7  9  1  0  0  0  0
  8  2  2  0  0  0  0
  9  4  1  0  0  0  0
 10  8  1  0  0  0  0
 11 13  1  0  0  0  0
 12  5  1  0  0  0  0
 13 14  1  0  0  0  0
 14  1  1  0  0  0  0
 15  7  2  0  0  0  0
 16  9  2  0  0  0  0
 17  3  2  0  0  0  0
 18 13  2  0  0  0  0
 19 20  2  0  0  0  0
 20 16  1  0  0  0  0
 21  4  1  0  0  0  0
 22 19  1  0  0  0  0
 23 12  1  0  0  0  0
 24 22  1  0  0  0  0
  6  7  1  0  0  0  0
 19 15  1  0  0  0  0
 10 12  2  0  0  0  0
M  END
>  <Code> (P3461059)
P3461059

>  <Number of H-Donors> (P3461059)
1

>  <Number of H-Acceptors> (P3461059)
6

>  <Number of Rotatable bonds> (P3461059)
4

>  <CLogP> (P3461059)
1.800000000000000e+000

>  <Number of Rings> (P3461059)
3

>  <PSA> (P3461059)
1.187000000000000e+002

$$$$

  -ISIS-  11102212342D

 18 20  0  0  0  0  0  0  0  0999 V2000
    4.6167   -0.5500    0.0000 C   0  0  0  0  0  0  0  0  0  0  0  0
    4.7500    0.2583    0.0000 N   0  0  0  0  0  0  0  0  0  0  0  0
    3.4375    0.0583    0.0000 N   0  0  3  0  0  0  0  0  0  0  0  0
    4.0167    0.6333    0.0000 C   0  0  0  0  0  0  0  0  0  0  0  0
    3.8042   -0.6750    0.0000 C   0  0  0  0  0  0  0  0  0  0  0  0
    5.2000   -1.1292    0.0000 C   0  0  0  0  0  0  0  0  0  0  0  0
    2.6417    0.2708    0.0000 C   0  0  0  0  0  0  0  0  0  0  0  0
    4.9792   -1.9292    0.0000 C   0  0  0  0  0  0  0  0  0  0  0  0
    3.8042    1.4333    0.0000 C   0  0  0  0  0  0  0  0  0  0  0  0
    2.4292    1.0625    0.0000 C   0  0  0  0  0  0  0  0  0  0  0  0
    3.0125    1.6458    0.0000 C   0  0  0  0  0  0  0  0  0  0  0  0
    5.5542   -2.5125    0.0000 C   0  0  0  0  0  0  0  0  0  0  0  0
    5.9917   -0.9167    0.0000 C   0  0  0  0  0  0  0  0  0  0  0  0
    6.3542   -2.3042    0.0000 C   0  0  0  0  0  0  0  0  0  0  0  0
    4.1792   -2.1375    0.0000 Cl  0  0  0  0  0  0  0  0  0  0  0  0
    1.6375    1.2750    0.0000 F   0  0  0  0  0  0  0  0  0  0  0  0
    6.5750   -1.5000    0.0000 C   0  0  0  0  0  0  0  0  0  0  0  0
    6.9417   -2.8875    0.0000 Cl  0  0  0  0  0  0  0  0  0  0  0  0
  2  1  1  0  0  0  0
  3  5  1  0  0  0  0
  4  2  2  0  0  0  0
  5  1  2  0  0  0  0
  6  1  1  0  0  0  0
  7  3  1  0  0  0  0
  8  6  2  0  0  0  0
  9  4  1  0  0  0  0
 10  7  2  0  0  0  0
 11  9  2  0  0  0  0
 12  8  1  0  0  0  0
 13  6  1  0  0  0  0
 14 17  1  0  0  0  0
 15  8  1  0  0  0  0
 16 10  1  0  0  0  0
 17 13  2  0  0  0  0
 18 14  1  0  0  0  0
  4  3  1  0  0  0  0
 12 14  2  0  0  0  0
 11 10  1  0  0  0  0
M  END
>  <Code> (P3354075)
P3354075

>  <Number of H-Donors> (P3354075)
0

>  <Number of H-Acceptors> (P3354075)
1

>  <Number of Rotatable bonds> (P3354075)
1

>  <CLogP> (P3354075)
4.100000000000000e+000

>  <Number of Rings> (P3354075)
3

>  <PSA> (P3354075)
1.730000000000000e+001

$$$$

  -ISIS-  11102212342D

 18 20  0  0  0  0  0  0  0  0999 V2000
    4.8667   -5.3000    0.0000 N   0  0  3  0  0  0  0  0  0  0  0  0
    6.1875   -5.4417    0.0000 N   0  0  0  0  0  0  0  0  0  0  0  0
    5.5792   -4.8917    0.0000 C   0  0  0  0  0  0  0  0  0  0  0  0
    5.8500   -6.1875    0.0000 C   0  0  0  0  0  0  0  0  0  0  0  0
    5.0375   -6.1000    0.0000 C   0  0  0  0  0  0  0  0  0  0  0  0
    4.1542   -4.8917    0.0000 C   0  0  0  0  0  0  0  0  0  0  0  0
    5.5792   -4.0667    0.0000 C   0  0  0  0  0  0  0  0  0  0  0  0
    6.2625   -6.9042    0.0000 C   0  0  0  0  0  0  0  0  0  0  0  0
    4.1542   -4.0667    0.0000 C   0  0  0  0  0  0  0  0  0  0  0  0
    5.8417   -7.6125    0.0000 C   0  0  0  0  0  0  0  0  0  0  0  0
    4.8667   -3.6542    0.0000 C   0  0  0  0  0  0  0  0  0  0  0  0
    6.2542   -8.3292    0.0000 C   0  0  0  0  0  0  0  0  0  0  0  0
    7.0792   -8.3292    0.0000 C   0  0  0  0  0  0  0  0  0  0  0  0
    7.0792   -6.9000    0.0000 C   0  0  0  0  0  0  0  0  0  0  0  0
    7.4917   -7.6125    0.0000 C   0  0  0  0  0  0  0  0  0  0  0  0
    7.4917   -9.0417    0.0000 F   0  0  0  0  0  0  0  0  0  0  0  0
    5.8375   -9.0417    0.0000 C   0  0  0  0  0  0  0  0  0  0  0  0
    3.4417   -3.6542    0.0000 C   0  0  0  0  0  0  0  0  0  0  0  0
  2  3  2  0  0  0  0
  3  1  1  0  0  0  0
  4  5  2  0  0  0  0
  5  1  1  0  0  0  0
  6  1  1  0  0  0  0
  7  3  1  0  0  0  0
  8  4  1  0  0  0  0
  9  6  2  0  0  0  0
 10  8  2  0  0  0  0
 11  9  1  0  0  0  0
 12 10  1  0  0  0  0
 13 15  1  0  0  0  0
 14  8  1  0  0  0  0
 15 14  2  0  0  0  0
 16 13  1  0  0  0  0
 17 12  1  0  0  0  0
 18  9  1  0  0  0  0
  4  2  1  0  0  0  0
  7 11  2  0  0  0  0
 12 13  2  0  0  0  0
M  END
>  <Code> (P3353997)
P3353997

>  <Number of H-Donors> (P3353997)
0

>  <Number of H-Acceptors> (P3353997)
1

>  <Number of Rotatable bonds> (P3353997)
1

>  <CLogP> (P3353997)
3.700000000000000e+000

>  <Number of Rings> (P3353997)
3

>  <PSA> (P3353997)
1.730000000000000e+001

$$$$

  -ISIS-  11102212342D

 18 20  0  0  0  0  0  0  0  0999 V2000
    6.1875   -5.4417    0.0000 N   0  0  0  0  0  0  0  0  0  0  0  0
    5.5792   -4.8917    0.0000 C   0  0  0  0  0  0  0  0  0  0  0  0
    4.8667   -5.3000    0.0000 N   0  0  3  0  0  0  0  0  0  0  0  0
    5.8500   -6.1875    0.0000 C   0  0  0  0  0  0  0  0  0  0  0  0
    5.0375   -6.1000    0.0000 C   0  0  0  0  0  0  0  0  0  0  0  0
    5.5792   -4.0667    0.0000 C   0  0  0  0  0  0  0  0  0  0  0  0
    6.2625   -6.9042    0.0000 C   0  0  0  0  0  0  0  0  0  0  0  0
    5.8417   -7.6125    0.0000 C   0  0  0  0  0  0  0  0  0  0  0  0
    4.1542   -4.8917    0.0000 C   0  0  0  0  0  0  0  0  0  0  0  0
    6.2542   -8.3292    0.0000 C   0  0  0  0  0  0  0  0  0  0  0  0
    4.1542   -4.0667    0.0000 C   0  0  0  0  0  0  0  0  0  0  0  0
    4.8667   -3.6542    0.0000 C   0  0  0  0  0  0  0  0  0  0  0  0
    7.0792   -8.3292    0.0000 C   0  0  0  0  0  0  0  0  0  0  0  0
    7.0792   -6.9000    0.0000 C   0  0  0  0  0  0  0  0  0  0  0  0
    7.4917   -7.6125    0.0000 C   0  0  0  0  0  0  0  0  0  0  0  0
    6.2917   -3.6542    0.0000 C   0  0  0  0  0  0  0  0  0  0  0  0
    5.8375   -9.0417    0.0000 C   0  0  0  0  0  0  0  0  0  0  0  0
    7.4917   -9.0417    0.0000 C   0  0  0  0  0  0  0  0  0  0  0  0
  2  1  2  0  0  0  0
  3  2  1  0  0  0  0
  4  1  1  0  0  0  0
  5  4  2  0  0  0  0
  6  2  1  0  0  0  0
  7  4  1  0  0  0  0
  8  7  2  0  0  0  0
  9  3  1  0  0  0  0
 10  8  1  0  0  0  0
 11 12  1  0  0  0  0
 12  6  2  0  0  0  0
 13 15  1  0  0  0  0
 14  7  1  0  0  0  0
 15 14  2  0  0  0  0
 16  6  1  0  0  0  0
 17 10  1  0  0  0  0
 18 13  1  0  0  0  0
  3  5  1  0  0  0  0
 11  9  2  0  0  0  0
 10 13  2  0  0  0  0
M  END
>  <Code> (P3353996)
P3353996

>  <Number of H-Donors> (P3353996)
0

>  <Number of H-Acceptors> (P3353996)
1

>  <Number of Rotatable bonds> (P3353996)
1

>  <CLogP> (P3353996)
4.000000000000000e+000

>  <Number of Rings> (P3353996)
3

>  <PSA> (P3353996)
1.730000000000000e+001

$$$$

  -ISIS-  11102212342D

 23 25  0  0  0  0  0  0  0  0999 V2000
    6.2875   -3.2542    0.0000 C   0  0  0  0  0  0  0  0  0  0  0  0
    7.0042   -3.6667    0.0000 C   0  0  0  0  0  0  0  0  0  0  0  0
    5.5750   -3.6750    0.0000 C   0  0  0  0  0  0  0  0  0  0  0  0
    5.5750   -4.5000    0.0000 C   0  0  0  0  0  0  0  0  0  0  0  0
    6.2875   -4.9125    0.0000 C   0  0  0  0  0  0  0  0  0  0  0  0
    6.1125   -5.7167    0.0000 N   0  0  0  0  0  0  0  0  0  0  0  0
    6.2875   -2.4292    0.0000 N   0  0  0  0  0  0  0  0  0  0  0  0
    4.9542   -5.0542    0.0000 N   0  0  3  0  0  0  0  0  0  0  0  0
    7.0042   -4.5000    0.0000 C   0  0  0  0  0  0  0  0  0  0  0  0
    5.2917   -5.8042    0.0000 C   0  0  0  0  0  0  0  0  0  0  0  0
    7.7250   -3.2500    0.0000 C   0  0  0  0  0  0  0  0  0  0  0  0
    5.5667   -2.0167    0.0000 C   0  0  0  0  0  0  0  0  0  0  0  0
    5.5667   -1.1917    0.0000 C   0  0  0  0  0  0  0  0  0  0  0  0
    4.8542   -0.7792    0.0000 C   0  0  0  0  0  0  0  0  0  0  0  0
    4.8542   -3.2500    0.0000 F   0  0  0  0  0  0  0  0  0  0  0  0
    7.7167   -2.4250    0.0000 O   0  0  0  0  0  0  0  0  0  0  0  0
    4.8542   -2.4292    0.0000 C   0  0  0  0  0  0  0  0  0  0  0  0
    4.1417   -1.1917    0.0000 C   0  0  0  0  0  0  0  0  0  0  0  0
    6.2917   -0.7667    0.0000 Cl  0  0  0  0  0  0  0  0  0  0  0  0
    8.4417   -3.6625    0.0000 O   0  0  0  0  0  0  0  0  0  0  0  0
    4.1417   -2.0167    0.0000 C   0  0  0  0  0  0  0  0  0  0  0  0
    3.4167   -0.7667    0.0000 Br  0  0  0  0  0  0  0  0  0  0  0  0
    4.1500   -4.8917    0.0000 C   0  0  0  0  0  0  0  0  0  0  0  0
  2  1  2  0  0  0  0
  3  1  1  0  0  0  0
  4  3  2  0  0  0  0
  5  4  1  0  0  0  0
  6  5  1  0  0  0  0
  7  1  1  0  0  0  0
  8  4  1  0  0  0  0
  9  2  1  0  0  0  0
 10  8  1  0  0  0  0
 11  2  1  0  0  0  0
 12  7  1  0  0  0  0
 13 12  2  0  0  0  0
 14 13  1  0  0  0  0
 15  3  1  0  0  0  0
 16 11  2  0  0  0  0
 17 12  1  0  0  0  0
 18 21  1  0  0  0  0
 19 13  1  0  0  0  0
 20 11  1  0  0  0  0
 21 17  2  0  0  0  0
 22 18  1  0  0  0  0
 23  8  1  0  0  0  0
  5  9  2  0  0  0  0
 10  6  2  0  0  0  0
 14 18  2  0  0  0  0
M  END
>  <Code> (P3353955)
P3353955

>  <Number of H-Donors> (P3353955)
2

>  <Number of H-Acceptors> (P3353955)
4

>  <Number of Rotatable bonds> (P3353955)
3

>  <CLogP> (P3353955)
4.300000000000000e+000

>  <Number of Rings> (P3353955)
3

>  <PSA> (P3353955)
6.720000000000000e+001

$$$$

  -ISIS-  11102212342D

 11 11  0  0  0  0  0  0  0  0999 V2000
    1.4792   -3.5292    0.0000 C   0  0  3  0  0  0  0  0  0  0  0  0
    2.2042   -3.9625    0.0000 C   0  0  0  0  0  0  0  0  0  0  0  0
    2.9125   -5.1917    0.0000 N   0  0  0  0  0  0  0  0  0  0  0  0
    3.6292   -4.7792    0.0000 C   0  0  0  0  0  0  0  0  0  0  0  0
    2.2042   -4.7792    0.0000 C   0  0  0  0  0  0  0  0  0  0  0  0
    2.9125   -3.5417    0.0000 C   0  0  0  0  0  0  0  0  0  0  0  0
    0.7625   -3.1042    0.0000 F   0  0  0  0  0  0  0  0  0  0  0  0
    1.0625   -4.2500    0.0000 F   0  0  0  0  0  0  0  0  0  0  0  0
    1.9042   -2.8125    0.0000 F   0  0  0  0  0  0  0  0  0  0  0  0
    3.6292   -3.9542    0.0000 C   0  0  0  0  0  0  0  0  0  0  0  0
    4.3417   -5.2000    0.0000 N   0  0  0  0  0  0  0  0  0  0  0  0
  2  1  1  0  0  0  0
  3  5  1  0  0  0  0
  4 10  1  0  0  0  0
  5  2  2  0  0  0  0
  6  2  1  0  0  0  0
  7  1  1  0  0  0  0
  8  1  1  0  0  0  0
  9  1  1  0  0  0  0
 10  6  2  0  0  0  0
 11  4  1  0  0  0  0
  3  4  2  0  0  0  0
M  END
>  <Code> (P2215030)
P2215030

>  <Number of H-Donors> (P2215030)
1

>  <Number of H-Acceptors> (P2215030)
2

>  <Number of Rotatable bonds> (P2215030)
1

>  <CLogP> (P2215030)
1.400000000000000e+000

>  <Number of Rings> (P2215030)
1

>  <PSA> (P2215030)
3.890000000000000e+001

$$$$

  -ISIS-  11102212342D

 27 29  0  0  0  0  0  0  0  0999 V2000
   -1.6208   -0.0167    0.0000 N   0  0  0  0  0  0  0  0  0  0  0  0
   -1.8583   -0.8125    0.0000 C   0  0  0  0  0  0  0  0  0  0  0  0
   -1.1833   -1.2792    0.0000 O   0  0  0  0  0  0  0  0  0  0  0  0
   -0.8000   -0.0042    0.0000 N   0  0  0  0  0  0  0  0  0  0  0  0
   -0.5333   -0.7917    0.0000 C   0  0  0  0  0  0  0  0  0  0  0  0
    4.8542    1.2958    0.0000 C   0  0  0  0  0  0  0  0  0  0  0  0
    5.0417    0.4875    0.0000 C   0  0  0  0  0  0  0  0  0  0  0  0
    4.0542    1.5333    0.0000 C   0  0  0  0  0  0  0  0  0  0  0  0
   -2.6375   -1.0667    0.0000 C   0  0  0  0  0  0  0  0  0  0  0  0
    1.6542   -0.7125    0.0000 C   0  0  0  0  0  0  0  0  0  0  0  0
    4.4417   -0.0667    0.0000 C   0  0  0  0  0  0  0  0  0  0  0  0
    3.4625    0.9708    0.0000 C   0  0  0  0  0  0  0  0  0  0  0  0
    3.6500    0.1708    0.0000 C   0  0  0  0  0  0  0  0  0  0  0  0
    0.8625   -0.4667    0.0000 N   0  0  0  0  0  0  0  0  0  0  0  0
    1.8417   -1.5167    0.0000 O   0  0  0  0  0  0  0  0  0  0  0  0
    0.2542   -1.0292    0.0000 C   0  0  0  0  0  0  0  0  0  0  0  0
   -3.2583   -0.5250    0.0000 C   0  0  0  0  0  0  0  0  0  0  0  0
   -2.8000   -1.8792    0.0000 C   0  0  0  0  0  0  0  0  0  0  0  0
    3.0500   -0.3875    0.0000 O   0  0  0  0  0  0  0  0  0  0  0  0
    5.4625    1.8583    0.0000 Cl  0  0  0  0  0  0  0  0  0  0  0  0
    2.2542   -0.1500    0.0000 C   0  0  0  0  0  0  0  0  0  0  0  0
   -4.0333   -0.7875    0.0000 C   0  0  0  0  0  0  0  0  0  0  0  0
   -3.5750   -2.1417    0.0000 C   0  0  0  0  0  0  0  0  0  0  0  0
   -4.2083   -1.6042    0.0000 C   0  0  0  0  0  0  0  0  0  0  0  0
    3.8667    2.3375    0.0000 C   0  0  0  0  0  0  0  0  0  0  0  0
    5.8250    0.2458    0.0000 C   0  0  0  0  0  0  0  0  0  0  0  0
   -4.9833   -1.8667    0.0000 C   0  0  0  0  0  0  0  0  0  0  0  0
  2  1  2  0  0  0  0
  3  2  1  0  0  0  0
  4  1  1  0  0  0  0
  5  4  2  0  0  0  0
  6  8  1  0  0  0  0
  7 11  1  0  0  0  0
  8 12  2  0  0  0  0
  9  2  1  0  0  0  0
 10 14  1  0  0  0  0
 11 13  2  0  0  0  0
 12 13  1  0  0  0  0
 13 19  1  0  0  0  0
 14 16  1  0  0  0  0
 15 10  2  0  0  0  0
 16  5  1  0  0  0  0
 17  9  2  0  0  0  0
 18  9  1  0  0  0  0
 19 21  1  0  0  0  0
 20  6  1  0  0  0  0
 21 10  1  0  0  0  0
 22 17  1  0  0  0  0
 23 18  2  0  0  0  0
 24 23  1  0  0  0  0
 25  8  1  0  0  0  0
 26  7  1  0  0  0  0
 27 24  1  0  0  0  0
  5  3  1  0  0  0  0
 24 22  2  0  0  0  0
  6  7  2  0  0  0  0
M  END
>  <Code> (P2196039)
P2196039

>  <Number of H-Donors> (P2196039)
1

>  <Number of H-Acceptors> (P2196039)
4

>  <Number of Rotatable bonds> (P2196039)
6

>  <CLogP> (P2196039)
4.100000000000000e+000

>  <Number of Rings> (P2196039)
3

>  <PSA> (P2196039)
7.730000000000001e+001

$$$$

  -ISIS-  11102212342D

 25 27  0  0  0  0  0  0  0  0999 V2000
    2.2375   -0.8625    0.0000 S   0  0  3  0  0  0  0  0  0  0  0  0
   -1.2833   -0.9375    0.0000 C   0  0  0  0  0  0  0  0  0  0  0  0
   -0.6083   -1.4167    0.0000 O   0  0  0  0  0  0  0  0  0  0  0  0
    3.0375   -1.0750    0.0000 C   0  0  0  0  0  0  0  0  0  0  0  0
   -2.0625   -1.2000    0.0000 C   0  0  0  0  0  0  0  0  0  0  0  0
    1.4500   -0.6125    0.0000 N   0  0  0  0  0  0  0  0  0  0  0  0
   -1.0250   -0.1500    0.0000 C   0  0  0  0  0  0  0  0  0  0  0  0
    0.0500   -0.9292    0.0000 C   0  0  0  0  0  0  0  0  0  0  0  0
    3.6125   -0.4875    0.0000 C   0  0  0  0  0  0  0  0  0  0  0  0
   -0.2125   -0.1375    0.0000 C   0  0  0  0  0  0  0  0  0  0  0  0
    1.9625   -1.6792    0.0000 O   0  0  0  0  0  0  0  0  0  0  0  0
    2.4875   -0.0750    0.0000 O   0  0  0  0  0  0  0  0  0  0  0  0
    4.3917   -0.7000    0.0000 C   0  0  0  0  0  0  0  0  0  0  0  0
    0.8375   -1.1750    0.0000 C   0  0  0  0  0  0  0  0  0  0  0  0
    4.6167   -1.4917    0.0000 C   0  0  0  0  0  0  0  0  0  0  0  0
   -2.6833   -0.6500    0.0000 C   0  0  0  0  0  0  0  0  0  0  0  0
    3.2417   -1.8625    0.0000 C   0  0  0  0  0  0  0  0  0  0  0  0
    4.0375   -2.0750    0.0000 C   0  0  0  0  0  0  0  0  0  0  0  0
    5.4042   -1.7042    0.0000 F   0  0  0  0  0  0  0  0  0  0  0  0
   -2.5125    0.1583    0.0000 F   0  0  0  0  0  0  0  0  0  0  0  0
   -2.2333   -2.0042    0.0000 C   0  0  0  0  0  0  0  0  0  0  0  0
    4.9792   -0.1125    0.0000 C   0  0  0  0  0  0  0  0  0  0  0  0
   -3.4708   -0.9042    0.0000 C   0  0  0  0  0  0  0  0  0  0  0  0
   -3.0125   -2.2667    0.0000 C   0  0  0  0  0  0  0  0  0  0  0  0
   -3.6375   -1.7167    0.0000 C   0  0  0  0  0  0  0  0  0  0  0  0
  2  3  1  0  0  0  0
  3  8  1  0  0  0  0
  4  1  1  0  0  0  0
  5  2  1  0  0  0  0
  6  1  1  0  0  0  0
  7 10  1  0  0  0  0
  8 14  1  0  0  0  0
  9  4  1  0  0  0  0
 10  8  2  0  0  0  0
 11  1  2  0  0  0  0
 12  1  2  0  0  0  0
 13  9  2  0  0  0  0
 14  6  1  0  0  0  0
 15 18  2  0  0  0  0
 16  5  2  0  0  0  0
 17  4  2  0  0  0  0
 18 17  1  0  0  0  0
 19 15  1  0  0  0  0
 20 16  1  0  0  0  0
 21  5  1  0  0  0  0
 22 13  1  0  0  0  0
 23 16  1  0  0  0  0
 24 21  2  0  0  0  0
 25 24  1  0  0  0  0
 15 13  1  0  0  0  0
  2  7  2  0  0  0  0
 25 23  2  0  0  0  0
M  END
>  <Code> (P2195496)
P2195496

>  <Number of H-Donors> (P2195496)
1

>  <Number of H-Acceptors> (P2195496)
2

>  <Number of Rotatable bonds> (P2195496)
5

>  <CLogP> (P2195496)
4.200000000000000e+000

>  <Number of Rings> (P2195496)
3

>  <PSA> (P2195496)
6.770000000000000e+001

$$$$

  -ISIS-  11102212342D

 16 17  0  0  0  0  0  0  0  0999 V2000
    2.4167    0.0083    0.0000 C   0  0  0  0  0  0  0  0  0  0  0  0
    2.4167   -0.8167    0.0000 N   0  0  0  0  0  0  0  0  0  0  0  0
    1.7000    0.4208    0.0000 C   0  0  0  0  0  0  0  0  0  0  0  0
    0.9917   -0.0000    0.0000 C   0  0  0  0  0  0  0  0  0  0  0  0
    1.7042   -1.2375    0.0000 N   0  0  0  0  0  0  0  0  0  0  0  0
    3.1292    0.4250    0.0000 C   0  0  0  0  0  0  0  0  0  0  0  0
    0.9917   -0.8250    0.0000 C   0  0  0  0  0  0  0  0  0  0  0  0
    0.2750    0.4125    0.0000 C   0  0  0  0  0  0  0  0  0  0  0  0
    3.1250    1.2500    0.0000 O   0  0  0  0  0  0  0  0  0  0  0  0
    0.2750   -1.2417    0.0000 C   0  0  0  0  0  0  0  0  0  0  0  0
    1.6917    1.2458    0.0000 O   0  0  0  0  0  0  0  0  0  0  0  0
   -0.4375   -0.0000    0.0000 C   0  0  0  0  0  0  0  0  0  0  0  0
    3.8417    0.0208    0.0000 O   0  0  0  0  0  0  0  0  0  0  0  0
   -0.4375   -0.8292    0.0000 C   0  0  0  0  0  0  0  0  0  0  0  0
   -1.1500    0.4083    0.0000 C   0  0  0  0  0  0  0  0  0  0  0  0
    4.5542    0.4333    0.0000 C   0  0  0  0  0  0  0  0  0  0  0  0
  2  1  1  0  0  0  0
  3  1  2  0  0  0  0
  4  3  1  0  0  0  0
  5  2  2  0  0  0  0
  6  1  1  0  0  0  0
  7  4  1  0  0  0  0
  8  4  2  0  0  0  0
  9  6  2  0  0  0  0
 10  7  2  0  0  0  0
 11  3  1  0  0  0  0
 12  8  1  0  0  0  0
 13  6  1  0  0  0  0
 14 12  2  0  0  0  0
 15 12  1  0  0  0  0
 16 13  1  0  0  0  0
  7  5  1  0  0  0  0
 10 14  1  0  0  0  0
M  END
>  <Code> (P2194974)
P2194974

>  <Number of H-Donors> (P2194974)
1

>  <Number of H-Acceptors> (P2194974)
5

>  <Number of Rotatable bonds> (P2194974)
2

>  <CLogP> (P2194974)
2.100000000000000e+000

>  <Number of Rings> (P2194974)
2

>  <PSA> (P2194974)
7.230000000000001e+001

$$$$

  -ISIS-  11102212342D

 25 28  0  0  0  0  0  0  0  0999 V2000
    0.9750   -2.3875    0.0000 N   0  0  3  0  0  0  0  0  0  0  0  0
    1.6917   -1.1417    0.0000 C   0  0  0  0  0  0  0  0  0  0  0  0
    0.9750   -1.5625    0.0000 C   0  0  0  0  0  0  0  0  0  0  0  0
    2.4417   -1.4875    0.0000 N   0  0  0  0  0  0  0  0  0  0  0  0
    1.7667   -0.3292    0.0000 C   0  0  0  0  0  0  0  0  0  0  0  0
    2.5917   -0.1500    0.0000 C   0  0  0  0  0  0  0  0  0  0  0  0
    1.6875   -2.8042    0.0000 C   0  0  0  0  0  0  0  0  0  0  0  0
    3.0125   -0.8667    0.0000 O   0  0  0  0  0  0  0  0  0  0  0  0
    1.6875   -3.6292    0.0000 C   0  0  0  0  0  0  0  0  0  0  0  0
    0.9750   -4.0500    0.0000 O   0  0  0  0  0  0  0  0  0  0  0  0
    0.2625   -2.8042    0.0000 C   0  0  0  0  0  0  0  0  0  0  0  0
    2.9250    0.5958    0.0000 C   0  0  0  0  0  0  0  0  0  0  0  0
    0.2542   -1.1417    0.0000 O   0  0  0  0  0  0  0  0  0  0  0  0
    0.2625   -3.6375    0.0000 C   0  0  3  0  0  0  0  0  0  0  0  0
    3.7500    0.6750    0.0000 C   0  0  0  0  0  0  0  0  0  0  0  0
    2.4375    1.2583    0.0000 C   0  0  0  0  0  0  0  0  0  0  0  0
    2.7750    2.0083    0.0000 C   0  0  0  0  0  0  0  0  0  0  0  0
    4.0875    1.4333    0.0000 C   0  0  0  0  0  0  0  0  0  0  0  0
    3.6000    2.0958    0.0000 C   0  0  0  0  0  0  0  0  0  0  0  0
    2.4000   -2.3917    0.0000 C   0  0  0  0  0  0  0  0  0  0  0  0
    2.4042   -4.0500    0.0000 C   0  0  0  0  0  0  0  0  0  0  0  0
   -0.4583   -4.0500    0.0000 C   0  0  0  0  0  0  0  0  0  0  0  0
    3.9292    2.8500    0.0000 C   0  0  0  0  0  0  0  0  0  0  0  0
    3.1125   -2.8000    0.0000 C   0  0  0  0  0  0  0  0  0  0  0  0
    3.1167   -3.6292    0.0000 C   0  0  0  0  0  0  0  0  0  0  0  0
  2  3  1  0  0  0  0
  3  1  1  0  0  0  0
  4  2  2  0  0  0  0
  5  2  1  0  0  0  0
  6  5  2  0  0  0  0
  7  1  1  0  0  0  0
  8  4  1  0  0  0  0
  9  7  2  0  0  0  0
 10 14  1  0  0  0  0
 11  1  1  0  0  0  0
 12  6  1  0  0  0  0
 13  3  2  0  0  0  0
 14 11  1  0  0  0  0
 15 12  2  0  0  0  0
 16 12  1  0  0  0  0
 17 16  2  0  0  0  0
 18 15  1  0  0  0  0
 19 17  1  0  0  0  0
 20  7  1  0  0  0  0
 21  9  1  0  0  0  0
 22 14  1  0  0  0  0
 23 19  1  0  0  0  0
 24 20  2  0  0  0  0
 25 24  1  0  0  0  0
 10  9  1  0  0  0  0
 25 21  2  0  0  0  0
  6  8  1  0  0  0  0
 18 19  2  0  0  0  0
M  END
>  <Code> (P2194663)
P2194663

>  <Number of H-Donors> (P2194663)
0

>  <Number of H-Acceptors> (P2194663)
3

>  <Number of Rotatable bonds> (P2194663)
2

>  <CLogP> (P2194663)
4.200000000000000e+000

>  <Number of Rings> (P2194663)
4

>  <PSA> (P2194663)
5.559999999999999e+001

$$$$

  -ISIS-  11102212342D

 24 26  0  0  0  0  0  0  0  0999 V2000
    5.1417   -6.1042    0.0000 N   0  0  3  0  0  0  0  0  0  0  0  0
    5.4042   -6.8875    0.0000 C   0  0  3  0  0  0  0  0  0  0  0  0
    4.3250   -6.1042    0.0000 N   0  0  0  0  0  0  0  0  0  0  0  0
    4.7292   -7.3667    0.0000 O   0  0  0  0  0  0  0  0  0  0  0  0
    4.0625   -6.8875    0.0000 C   0  0  0  0  0  0  0  0  0  0  0  0
    6.1875   -7.1417    0.0000 C   0  0  0  0  0  0  0  0  0  0  0  0
    5.7375   -8.5042    0.0000 N   0  3  0  0  0  0  0  0  0  0  0  0
    6.3542   -7.9542    0.0000 C   0  0  0  0  0  0  0  0  0  0  0  0
    5.6292   -5.4292    0.0000 C   0  0  0  0  0  0  0  0  0  0  0  0
    3.2792   -7.1417    0.0000 C   0  0  0  0  0  0  0  0  0  0  0  0
    4.9542   -8.2417    0.0000 O   0  5  0  0  0  0  0  0  0  0  0  0
    5.9042   -9.3042    0.0000 O   0  0  0  0  0  0  0  0  0  0  0  0
    6.4542   -5.5167    0.0000 O   0  0  0  0  0  0  0  0  0  0  0  0
    3.1125   -7.9417    0.0000 C   0  0  0  0  0  0  0  0  0  0  0  0
    2.6667   -6.5917    0.0000 C   0  0  0  0  0  0  0  0  0  0  0  0
    6.8000   -6.5917    0.0000 C   0  0  0  0  0  0  0  0  0  0  0  0
    2.3292   -8.2042    0.0000 C   0  0  0  0  0  0  0  0  0  0  0  0
    1.8792   -6.8500    0.0000 C   0  0  0  0  0  0  0  0  0  0  0  0
    1.7042   -7.6625    0.0000 C   0  0  0  0  0  0  0  0  0  0  0  0
    7.1375   -8.2042    0.0000 C   0  0  0  0  0  0  0  0  0  0  0  0
    5.2917   -4.6667    0.0000 C   0  0  0  0  0  0  0  0  0  0  0  0
    0.9250   -7.9042    0.0000 C   0  0  0  0  0  0  0  0  0  0  0  0
    7.5875   -6.8417    0.0000 C   0  0  0  0  0  0  0  0  0  0  0  0
    7.7542   -7.6625    0.0000 C   0  0  0  0  0  0  0  0  0  0  0  0
  2  1  1  0  0  0  0
  3  1  1  0  0  0  0
  4  2  1  0  0  0  0
  5  3  2  0  0  0  0
  6  2  1  0  0  0  0
  7  8  1  0  0  0  0
  8  6  2  0  0  0  0
  9  1  1  0  0  0  0
 10  5  1  0  0  0  0
 11  7  1  0  0  0  0
 12  7  2  0  0  0  0
 13  9  2  0  0  0  0
 14 10  1  0  0  0  0
 15 10  2  0  0  0  0
 16  6  1  0  0  0  0
 17 14  2  0  0  0  0
 18 15  1  0  0  0  0
 19 18  2  0  0  0  0
 20  8  1  0  0  0  0
 21  9  1  0  0  0  0
 22 19  1  0  0  0  0
 23 16  2  0  0  0  0
 24 23  1  0  0  0  0
  4  5  1  0  0  0  0
 24 20  2  0  0  0  0
 19 17  1  0  0  0  0
M  CHG  2   7   1  11  -1
M  END
>  <Code> (P2194099)
P2194099

>  <Number of H-Donors> (P2194099)
0

>  <Number of H-Acceptors> (P2194099)
5

>  <Number of Rotatable bonds> (P2194099)
3

>  <CLogP> (P2194099)
3.300000000000000e+000

>  <Number of Rings> (P2194099)
3

>  <PSA> (P2194099)
8.769999999999999e+001

$$$$

  -ISIS-  11102212342D

 29 32  0  0  0  0  0  0  0  0999 V2000
    0.1417   -0.5000    0.0000 C   0  0  0  0  0  0  0  0  0  0  0  0
   -0.6458   -0.2375    0.0000 C   0  0  0  0  0  0  0  0  0  0  0  0
   -0.8958    0.5500    0.0000 N   0  0  0  0  0  0  0  0  0  0  0  0
    1.2167   -1.2792    0.0000 C   0  0  0  0  0  0  0  0  0  0  0  0
   -1.7125    0.5458    0.0000 C   0  0  0  0  0  0  0  0  0  0  0  0
    1.4792   -0.4750    0.0000 N   0  0  0  0  0  0  0  0  0  0  0  0
    0.4000   -1.2792    0.0000 S   0  0  0  0  0  0  0  0  0  0  0  0
    0.8125   -0.0042    0.0000 C   0  0  0  0  0  0  0  0  0  0  0  0
   -1.9708   -0.2375    0.0000 N   0  0  0  0  0  0  0  0  0  0  0  0
   -1.3083   -0.7250    0.0000 O   0  0  0  0  0  0  0  0  0  0  0  0
    1.7125   -1.9417    0.0000 N   0  0  0  0  0  0  0  0  0  0  0  0
   -2.2000    1.2208    0.0000 C   0  0  0  0  0  0  0  0  0  0  0  0
    4.3292   -3.0792    0.0000 C   0  0  0  0  0  0  0  0  0  0  0  0
    2.5375   -1.8500    0.0000 C   0  0  0  0  0  0  0  0  0  0  0  0
    3.8417   -2.4167    0.0000 O   0  0  0  0  0  0  0  0  0  0  0  0
   -3.0208    1.2083    0.0000 S   0  0  0  0  0  0  0  0  0  0  0  0
   -1.9375    2.0208    0.0000 C   0  0  0  0  0  0  0  0  0  0  0  0
   -3.2708    2.0000    0.0000 C   0  0  0  0  0  0  0  0  0  0  0  0
   -2.6000    2.4875    0.0000 C   0  0  0  0  0  0  0  0  0  0  0  0
    2.8625   -1.0917    0.0000 O   0  0  0  0  0  0  0  0  0  0  0  0
    4.0042   -3.8292    0.0000 C   0  0  0  0  0  0  0  0  0  0  0  0
    5.1417   -2.9875    0.0000 C   0  0  0  0  0  0  0  0  0  0  0  0
    3.0250   -2.5125    0.0000 C   0  0  0  0  0  0  0  0  0  0  0  0
    0.8000    0.8208    0.0000 C   0  0  0  0  0  0  0  0  0  0  0  0
    5.3042   -4.4042    0.0000 C   0  0  0  0  0  0  0  0  0  0  0  0
    5.6375   -3.6417    0.0000 C   0  0  0  0  0  0  0  0  0  0  0  0
    4.4875   -4.5000    0.0000 C   0  0  0  0  0  0  0  0  0  0  0  0
    5.4667   -2.2292    0.0000 C   0  0  0  0  0  0  0  0  0  0  0  0
    3.1875   -3.9167    0.0000 C   0  0  0  0  0  0  0  0  0  0  0  0
  2  1  1  0  0  0  0
  3  2  2  0  0  0  0
  4  7  1  0  0  0  0
  5  3  1  0  0  0  0
  6  8  1  0  0  0  0
  7  1  1  0  0  0  0
  8  1  2  0  0  0  0
  9 10  1  0  0  0  0
 10  2  1  0  0  0  0
 11  4  1  0  0  0  0
 12  5  1  0  0  0  0
 13 15  1  0  0  0  0
 14 11  1  0  0  0  0
 15 23  1  0  0  0  0
 16 12  1  0  0  0  0
 17 12  2  0  0  0  0
 18 16  1  0  0  0  0
 19 17  1  0  0  0  0
 20 14  2  0  0  0  0
 21 13  2  0  0  0  0
 22 13  1  0  0  0  0
 23 14  1  0  0  0  0
 24  8  1  0  0  0  0
 25 26  1  0  0  0  0
 26 22  2  0  0  0  0
 27 21  1  0  0  0  0
 28 22  1  0  0  0  0
 29 21  1  0  0  0  0
  6  4  2  0  0  0  0
  9  5  2  0  0  0  0
 18 19  2  0  0  0  0
 25 27  2  0  0  0  0
M  END
>  <Code> (P2193760)
P2193760

>  <Number of H-Donors> (P2193760)
1

>  <Number of H-Acceptors> (P2193760)
5

>  <Number of Rotatable bonds> (P2193760)
6

>  <CLogP> (P2193760)
4.300000000000000e+000

>  <Number of Rings> (P2193760)
4

>  <PSA> (P2193760)
1.466000000000000e+002

$$$$

  -ISIS-  11102212342D

 28 30  0  0  0  0  0  0  0  0999 V2000
    2.1250    0.7708    0.0000 C   0  0  0  0  0  0  0  0  0  0  0  0
    1.8625   -0.0125    0.0000 C   0  0  0  0  0  0  0  0  0  0  0  0
    2.9292    0.7708    0.0000 N   0  0  0  0  0  0  0  0  0  0  0  0
    3.1875   -0.0292    0.0000 C   0  0  0  0  0  0  0  0  0  0  0  0
    2.5167   -0.5000    0.0000 O   0  0  0  0  0  0  0  0  0  0  0  0
   -0.5000   -0.7375    0.0000 C   0  0  0  0  0  0  0  0  0  0  0  0
    1.6375    1.4375    0.0000 C   0  0  0  0  0  0  0  0  0  0  0  0
    0.1000   -1.3000    0.0000 C   0  0  0  0  0  0  0  0  0  0  0  0
    1.0750   -0.2500    0.0000 N   0  0  0  0  0  0  0  0  0  0  0  0
    0.8875   -1.0500    0.0000 N   0  0  0  0  0  0  0  0  0  0  0  0
    3.9625   -0.2875    0.0000 C   0  0  0  0  0  0  0  0  0  0  0  0
   -1.2833   -0.9792    0.0000 C   0  0  0  0  0  0  0  0  0  0  0  0
    0.8167    1.3583    0.0000 O   0  0  0  0  0  0  0  0  0  0  0  0
   -0.0750   -2.1000    0.0000 O   0  0  0  0  0  0  0  0  0  0  0  0
    4.1292   -1.0917    0.0000 C   0  0  0  0  0  0  0  0  0  0  0  0
    4.5750    0.2583    0.0000 C   0  0  0  0  0  0  0  0  0  0  0  0
    1.9792    2.1958    0.0000 O   0  0  0  0  0  0  0  0  0  0  0  0
   -1.4625   -1.7875    0.0000 F   0  0  0  0  0  0  0  0  0  0  0  0
    5.3542   -0.0000    0.0000 C   0  0  0  0  0  0  0  0  0  0  0  0
    4.9125   -1.3542    0.0000 C   0  0  0  0  0  0  0  0  0  0  0  0
    5.5292   -0.8042    0.0000 C   0  0  0  0  0  0  0  0  0  0  0  0
   -0.3125    0.0625    0.0000 C   0  0  0  0  0  0  0  0  0  0  0  0
   -1.8875   -0.4250    0.0000 C   0  0  0  0  0  0  0  0  0  0  0  0
    2.8000    2.2708    0.0000 C   0  0  0  0  0  0  0  0  0  0  0  0
    6.3042   -1.0667    0.0000 C   0  0  0  0  0  0  0  0  0  0  0  0
   -0.9208    0.6208    0.0000 C   0  0  0  0  0  0  0  0  0  0  0  0
    3.1417    3.0208    0.0000 C   0  0  0  0  0  0  0  0  0  0  0  0
   -1.7083    0.3833    0.0000 C   0  0  0  0  0  0  0  0  0  0  0  0
  2  1  2  0  0  0  0
  3  1  1  0  0  0  0
  4  3  2  0  0  0  0
  5  2  1  0  0  0  0
  6  8  1  0  0  0  0
  7  1  1  0  0  0  0
  8 10  1  0  0  0  0
  9  2  1  0  0  0  0
 10  9  1  0  0  0  0
 11  4  1  0  0  0  0
 12  6  1  0  0  0  0
 13  7  2  0  0  0  0
 14  8  2  0  0  0  0
 15 11  2  0  0  0  0
 16 11  1  0  0  0  0
 17  7  1  0  0  0  0
 18 12  1  0  0  0  0
 19 16  2  0  0  0  0
 20 15  1  0  0  0  0
 21 19  1  0  0  0  0
 22  6  2  0  0  0  0
 23 12  2  0  0  0  0
 24 17  1  0  0  0  0
 25 21  1  0  0  0  0
 26 22  1  0  0  0  0
 27 24  1  0  0  0  0
 28 26  2  0  0  0  0
  5  4  1  0  0  0  0
 20 21  2  0  0  0  0
 23 28  1  0  0  0  0
M  END
>  <Code> (P2192253)
P2192253

>  <Number of H-Donors> (P2192253)
2

>  <Number of H-Acceptors> (P2192253)
5

>  <Number of Rotatable bonds> (P2192253)
7

>  <CLogP> (P2192253)
3.900000000000000e+000

>  <Number of Rings> (P2192253)
3

>  <PSA> (P2192253)
9.350000000000001e+001

$$$$

  -ISIS-  11102212342D

 31 34  0  0  0  0  0  0  0  0999 V2000
   13.9792   -1.1417    0.0000 N   0  0  0  0  0  0  0  0  0  0  0  0
   13.8917   -0.3250    0.0000 C   0  0  0  0  0  0  0  0  0  0  0  0
   14.7875   -1.3167    0.0000 C   0  0  0  0  0  0  0  0  0  0  0  0
   15.2042   -0.6042    0.0000 N   0  0  0  0  0  0  0  0  0  0  0  0
   13.1792    0.0833    0.0000 C   0  0  0  0  0  0  0  0  0  0  0  0
   14.6542    0.0083    0.0000 O   0  0  0  0  0  0  0  0  0  0  0  0
   11.7417   -1.5542    0.0000 C   0  0  0  0  0  0  0  0  0  0  0  0
   12.4625   -1.1417    0.0000 N   0  0  0  0  0  0  0  0  0  0  0  0
   12.4625   -0.3250    0.0000 C   0  0  0  0  0  0  0  0  0  0  0  0
   15.1250   -2.0750    0.0000 C   0  0  0  0  0  0  0  0  0  0  0  0
   11.0292   -1.1417    0.0000 C   0  0  0  0  0  0  0  0  0  0  0  0
   11.7417   -2.3875    0.0000 O   0  0  0  0  0  0  0  0  0  0  0  0
   15.9417   -2.1625    0.0000 C   0  0  0  0  0  0  0  0  0  0  0  0
   14.6375   -2.7375    0.0000 C   0  0  0  0  0  0  0  0  0  0  0  0
   10.3167   -1.5542    0.0000 C   0  0  0  0  0  0  0  0  0  0  0  0
   11.0292   -0.3167    0.0000 C   0  0  0  0  0  0  0  0  0  0  0  0
    8.1875    1.3333    0.0000 C   0  0  0  0  0  0  0  0  0  0  0  0
    8.1875    2.1500    0.0000 C   0  0  0  0  0  0  0  0  0  0  0  0
   15.7917   -3.5792    0.0000 C   0  0  0  0  0  0  0  0  0  0  0  0
    9.6042   -0.3125    0.0000 C   0  0  0  0  0  0  0  0  0  0  0  0
   14.9667   -3.4917    0.0000 C   0  0  0  0  0  0  0  0  0  0  0  0
   16.2792   -2.9125    0.0000 C   0  0  0  0  0  0  0  0  0  0  0  0
    9.6042   -1.1417    0.0000 C   0  0  0  0  0  0  0  0  0  0  0  0
   10.3250    0.0958    0.0000 C   0  0  0  0  0  0  0  0  0  0  0  0
   16.1292   -4.3292    0.0000 F   0  0  0  0  0  0  0  0  0  0  0  0
   13.1792    0.9208    0.0000 C   0  0  0  0  0  0  0  0  0  0  0  0
    8.8917    0.0958    0.0000 O   0  0  0  0  0  0  0  0  0  0  0  0
   11.7542    0.0833    0.0000 C   0  0  0  0  0  0  0  0  0  0  0  0
    8.8917    0.9208    0.0000 C   0  0  0  0  0  0  0  0  0  0  0  0
   12.4625    1.3333    0.0000 C   0  0  0  0  0  0  0  0  0  0  0  0
   11.7542    0.9083    0.0000 C   0  0  0  0  0  0  0  0  0  0  0  0
  2  1  2  0  0  0  0
  3  1  1  0  0  0  0
  4  3  2  0  0  0  0
  5  2  1  0  0  0  0
  6  2  1  0  0  0  0
  7  8  1  0  0  0  0
  8  9  1  0  0  0  0
  9  5  2  0  0  0  0
 10  3  1  0  0  0  0
 11  7  1  0  0  0  0
 12  7  2  0  0  0  0
 13 10  1  0  0  0  0
 14 10  2  0  0  0  0
 15 11  1  0  0  0  0
 16 11  2  0  0  0  0
 17 29  1  0  0  0  0
 18 17  2  0  0  0  0
 19 21  2  0  0  0  0
 20 24  2  0  0  0  0
 21 14  1  0  0  0  0
 22 13  2  0  0  0  0
 23 15  2  0  0  0  0
 24 16  1  0  0  0  0
 25 19  1  0  0  0  0
 26  5  1  0  0  0  0
 27 20  1  0  0  0  0
 28  9  1  0  0  0  0
 29 27  1  0  0  0  0
 30 26  2  0  0  0  0
 31 30  1  0  0  0  0
  4  6  1  0  0  0  0
 22 19  1  0  0  0  0
 31 28  2  0  0  0  0
 23 20  1  0  0  0  0
M  END
>  <Code> (P2191859)
P2191859

>  <Number of H-Donors> (P2191859)
1

>  <Number of H-Acceptors> (P2191859)
4

>  <Number of Rotatable bonds> (P2191859)
7

>  <CLogP> (P2191859)
4.700000000000000e+000

>  <Number of Rings> (P2191859)
4

>  <PSA> (P2191859)
7.730000000000001e+001

$$$$

  -ISIS-  11102212342D

 30 33  0  0  0  0  0  0  0  0999 V2000
    5.5625   -2.6125    0.0000 N   0  0  0  0  0  0  0  0  0  0  0  0
    5.4750   -1.7875    0.0000 C   0  0  0  0  0  0  0  0  0  0  0  0
    6.3667   -2.7792    0.0000 C   0  0  0  0  0  0  0  0  0  0  0  0
    6.7792   -2.0667    0.0000 N   0  0  0  0  0  0  0  0  0  0  0  0
    3.3292   -3.0375    0.0000 C   0  0  0  0  0  0  0  0  0  0  0  0
    4.7542   -1.3792    0.0000 C   0  0  0  0  0  0  0  0  0  0  0  0
    6.2292   -1.4542    0.0000 O   0  0  0  0  0  0  0  0  0  0  0  0
    2.6125   -2.6250    0.0000 C   0  0  0  0  0  0  0  0  0  0  0  0
    4.0417   -2.6167    0.0000 N   0  0  0  0  0  0  0  0  0  0  0  0
    4.0417   -1.8000    0.0000 C   0  0  0  0  0  0  0  0  0  0  0  0
    6.7042   -3.5292    0.0000 C   0  0  0  0  0  0  0  0  0  0  0  0
    3.3292   -3.8667    0.0000 O   0  0  0  0  0  0  0  0  0  0  0  0
    1.9125   -3.0375    0.0000 C   0  0  0  0  0  0  0  0  0  0  0  0
    7.5250   -3.6167    0.0000 C   0  0  0  0  0  0  0  0  0  0  0  0
    6.2167   -4.1917    0.0000 C   0  0  0  0  0  0  0  0  0  0  0  0
    7.3792   -5.0375    0.0000 C   0  0  0  0  0  0  0  0  0  0  0  0
    6.5542   -4.9500    0.0000 C   0  0  0  0  0  0  0  0  0  0  0  0
    7.8667   -4.3542    0.0000 C   0  0  0  0  0  0  0  0  0  0  0  0
    7.7167   -5.7792    0.0000 F   0  0  0  0  0  0  0  0  0  0  0  0
    4.7542   -0.5500    0.0000 C   0  0  0  0  0  0  0  0  0  0  0  0
    2.6167   -1.8000    0.0000 C   0  0  0  0  0  0  0  0  0  0  0  0
    1.9167   -3.8542    0.0000 O   0  0  0  0  0  0  0  0  0  0  0  0
    3.3167   -1.3792    0.0000 C   0  0  0  0  0  0  0  0  0  0  0  0
    1.1917   -2.6292    0.0000 C   0  0  0  0  0  0  0  0  0  0  0  0
    1.2042   -4.2750    0.0000 C   0  0  0  0  0  0  0  0  0  0  0  0
    4.0292   -0.1417    0.0000 C   0  0  0  0  0  0  0  0  0  0  0  0
    1.9042   -1.3917    0.0000 C   0  0  0  0  0  0  0  0  0  0  0  0
    3.3167   -0.5625    0.0000 C   0  0  0  0  0  0  0  0  0  0  0  0
    1.2042   -5.0917    0.0000 C   0  0  0  0  0  0  0  0  0  0  0  0
    1.1917   -1.8042    0.0000 C   0  0  0  0  0  0  0  0  0  0  0  0
  2  1  2  0  0  0  0
  3  1  1  0  0  0  0
  4  3  2  0  0  0  0
  5  9  1  0  0  0  0
  6  2  1  0  0  0  0
  7  2  1  0  0  0  0
  8  5  1  0  0  0  0
  9 10  1  0  0  0  0
 10  6  2  0  0  0  0
 11  3  1  0  0  0  0
 12  5  2  0  0  0  0
 13  8  1  0  0  0  0
 14 11  1  0  0  0  0
 15 11  2  0  0  0  0
 16 17  2  0  0  0  0
 17 15  1  0  0  0  0
 18 14  2  0  0  0  0
 19 16  1  0  0  0  0
 20  6  1  0  0  0  0
 21  8  2  0  0  0  0
 22 13  1  0  0  0  0
 23 10  1  0  0  0  0
 24 13  2  0  0  0  0
 25 22  1  0  0  0  0
 26 20  2  0  0  0  0
 27 21  1  0  0  0  0
 28 26  1  0  0  0  0
 29 25  1  0  0  0  0
 30 27  2  0  0  0  0
  4  7  1  0  0  0  0
 18 16  1  0  0  0  0
 28 23  2  0  0  0  0
 30 24  1  0  0  0  0
M  END
>  <Code> (P2191521)
P2191521

>  <Number of H-Donors> (P2191521)
1

>  <Number of H-Acceptors> (P2191521)
4

>  <Number of Rotatable bonds> (P2191521)
6

>  <CLogP> (P2191521)
4.500000000000000e+000

>  <Number of Rings> (P2191521)
4

>  <PSA> (P2191521)
7.730000000000001e+001

$$$$

  -ISIS-  11102212342D

 28 31  0  0  0  0  0  0  0  0999 V2000
    6.1792   -0.3417    0.0000 N   0  0  0  0  0  0  0  0  0  0  0  0
    6.0917    0.4875    0.0000 C   0  0  0  0  0  0  0  0  0  0  0  0
    6.9917   -0.5125    0.0000 C   0  0  0  0  0  0  0  0  0  0  0  0
    7.4042    0.2083    0.0000 N   0  0  0  0  0  0  0  0  0  0  0  0
    5.3750    0.8875    0.0000 C   0  0  0  0  0  0  0  0  0  0  0  0
    6.8500    0.8208    0.0000 O   0  0  0  0  0  0  0  0  0  0  0  0
    3.9417   -0.7625    0.0000 C   0  0  0  0  0  0  0  0  0  0  0  0
    4.6625   -0.3500    0.0000 N   0  0  0  0  0  0  0  0  0  0  0  0
    4.6625    0.4750    0.0000 C   0  0  0  0  0  0  0  0  0  0  0  0
    7.3292   -1.2625    0.0000 C   0  0  0  0  0  0  0  0  0  0  0  0
    3.2292   -0.3500    0.0000 C   0  0  0  0  0  0  0  0  0  0  0  0
    3.9417   -1.5875    0.0000 O   0  0  0  0  0  0  0  0  0  0  0  0
    8.1417   -1.3417    0.0000 C   0  0  0  0  0  0  0  0  0  0  0  0
    6.8417   -1.9292    0.0000 C   0  0  0  0  0  0  0  0  0  0  0  0
    2.5167   -0.7625    0.0000 C   0  0  0  0  0  0  0  0  0  0  0  0
    3.2292    0.4875    0.0000 C   0  0  0  0  0  0  0  0  0  0  0  0
    7.1792   -2.6792    0.0000 C   0  0  0  0  0  0  0  0  0  0  0  0
    8.4792   -2.0917    0.0000 C   0  0  0  0  0  0  0  0  0  0  0  0
    2.5167    0.8958    0.0000 C   0  0  0  0  0  0  0  0  0  0  0  0
    1.8042   -0.3542    0.0000 C   0  0  0  0  0  0  0  0  0  0  0  0
    8.0000   -2.7667    0.0000 C   0  0  0  0  0  0  0  0  0  0  0  0
    1.8042    0.4833    0.0000 C   0  0  0  0  0  0  0  0  0  0  0  0
    5.3750    1.7208    0.0000 C   0  0  0  0  0  0  0  0  0  0  0  0
    3.9417    0.8875    0.0000 C   0  0  0  0  0  0  0  0  0  0  0  0
    8.3292   -3.5167    0.0000 C   0  0  0  0  0  0  0  0  0  0  0  0
    1.0875    0.8958    0.0000 C   0  0  0  0  0  0  0  0  0  0  0  0
    4.6542    2.1333    0.0000 C   0  0  0  0  0  0  0  0  0  0  0  0
    3.9417    1.7125    0.0000 C   0  0  0  0  0  0  0  0  0  0  0  0
  2  1  2  0  0  0  0
  3  1  1  0  0  0  0
  4  3  2  0  0  0  0
  5  2  1  0  0  0  0
  6  2  1  0  0  0  0
  7  8  1  0  0  0  0
  8  9  1  0  0  0  0
  9  5  2  0  0  0  0
 10  3  1  0  0  0  0
 11  7  1  0  0  0  0
 12  7  2  0  0  0  0
 13 10  1  0  0  0  0
 14 10  2  0  0  0  0
 15 11  1  0  0  0  0
 16 11  2  0  0  0  0
 17 14  1  0  0  0  0
 18 13  2  0  0  0  0
 19 16  1  0  0  0  0
 20 15  2  0  0  0  0
 21 17  2  0  0  0  0
 22 19  2  0  0  0  0
 23  5  1  0  0  0  0
 24  9  1  0  0  0  0
 25 21  1  0  0  0  0
 26 22  1  0  0  0  0
 27 23  2  0  0  0  0
 28 27  1  0  0  0  0
  4  6  1  0  0  0  0
 18 21  1  0  0  0  0
 28 24  2  0  0  0  0
 20 22  1  0  0  0  0
M  END
>  <Code> (P2191263)
P2191263

>  <Number of H-Donors> (P2191263)
1

>  <Number of H-Acceptors> (P2191263)
3

>  <Number of Rotatable bonds> (P2191263)
4

>  <CLogP> (P2191263)
4.900000000000000e+000

>  <Number of Rings> (P2191263)
4

>  <PSA> (P2191263)
6.800000000000000e+001

$$$$

  -ISIS-  11102212342D

 27 30  0  0  0  0  0  0  0  0999 V2000
    0.5417    1.8625    0.0000 C   0  0  0  0  0  0  0  0  0  0  0  0
    1.1667   -1.8542    0.0000 N   0  0  0  0  0  0  0  0  0  0  0  0
    0.4667    2.6875    0.0000 C   0  0  0  0  0  0  0  0  0  0  0  0
   -0.2083    1.5333    0.0000 O   0  0  0  0  0  0  0  0  0  0  0  0
    0.3625   -2.0292    0.0000 C   0  0  0  0  0  0  0  0  0  0  0  0
   -0.0500   -1.3042    0.0000 N   0  0  0  0  0  0  0  0  0  0  0  0
   -0.3375    2.8583    0.0000 C   0  0  0  0  0  0  0  0  0  0  0  0
   -0.7583    2.1458    0.0000 C   0  0  0  0  0  0  0  0  0  0  0  0
    1.2542   -1.0292    0.0000 C   0  0  0  0  0  0  0  0  0  0  0  0
    1.2542    1.4458    0.0000 C   0  0  0  0  0  0  0  0  0  0  0  0
    0.5042   -0.6917    0.0000 O   0  0  0  0  0  0  0  0  0  0  0  0
   -0.7500    3.5708    0.0000 C   0  0  0  0  0  0  0  0  0  0  0  0
    1.9667   -0.6167    0.0000 C   0  0  0  0  0  0  0  0  0  0  0  0
    0.0292   -2.7792    0.0000 C   0  0  0  0  0  0  0  0  0  0  0  0
    1.9667    1.8625    0.0000 O   0  0  0  0  0  0  0  0  0  0  0  0
   -1.5833    2.1583    0.0000 C   0  0  0  0  0  0  0  0  0  0  0  0
    1.2542    0.6333    0.0000 N   0  0  0  0  0  0  0  0  0  0  0  0
    1.9792    0.2208    0.0000 C   0  0  0  0  0  0  0  0  0  0  0  0
   -1.5833    3.5708    0.0000 C   0  0  0  0  0  0  0  0  0  0  0  0
    1.0792    3.1958    0.0000 C   0  0  0  0  0  0  0  0  0  0  0  0
   -1.9875    2.8750    0.0000 C   0  0  0  0  0  0  0  0  0  0  0  0
    0.5167   -3.4500    0.0000 C   0  0  0  0  0  0  0  0  0  0  0  0
   -0.7958   -2.8625    0.0000 C   0  0  0  0  0  0  0  0  0  0  0  0
   -1.9833    4.2792    0.0000 C   0  0  0  0  0  0  0  0  0  0  0  0
   -1.1208   -3.6042    0.0000 C   0  0  0  0  0  0  0  0  0  0  0  0
    0.1875   -4.1917    0.0000 C   0  0  0  0  0  0  0  0  0  0  0  0
   -0.6458   -4.2875    0.0000 C   0  0  0  0  0  0  0  0  0  0  0  0
  2  9  2  0  0  0  0
  3  1  2  0  0  0  0
  4  1  1  0  0  0  0
  5  2  1  0  0  0  0
  6 11  1  0  0  0  0
  7  3  1  0  0  0  0
  8  4  1  0  0  0  0
  9 13  1  0  0  0  0
 10  1  1  0  0  0  0
 11  9  1  0  0  0  0
 12  7  1  0  0  0  0
 13 18  1  0  0  0  0
 14  5  1  0  0  0  0
 15 10  2  0  0  0  0
 16  8  1  0  0  0  0
 17 10  1  0  0  0  0
 18 17  1  0  0  0  0
 19 12  2  0  0  0  0
 20  3  1  0  0  0  0
 21 16  2  0  0  0  0
 22 14  2  0  0  0  0
 23 14  1  0  0  0  0
 24 19  1  0  0  0  0
 25 23  2  0  0  0  0
 26 22  1  0  0  0  0
 27 25  1  0  0  0  0
  7  8  2  0  0  0  0
 21 19  1  0  0  0  0
  6  5  2  0  0  0  0
 27 26  2  0  0  0  0
M  END
>  <Code> (P2190443)
P2190443

>  <Number of H-Donors> (P2190443)
1

>  <Number of H-Acceptors> (P2190443)
3

>  <Number of Rotatable bonds> (P2190443)
5

>  <CLogP> (P2190443)
4.000000000000000e+000

>  <Number of Rings> (P2190443)
4

>  <PSA> (P2190443)
8.119999999999999e+001

$$$$

  -ISIS-  11102212342D

 20 21  0  0  0  0  0  0  0  0999 V2000
   -3.6208    2.8208    0.0000 C   0  0  0  0  0  0  0  0  0  0  0  0
   -3.6208    1.9958    0.0000 C   0  0  0  0  0  0  0  0  0  0  0  0
   -4.3333    1.5833    0.0000 N   0  0  3  0  0  0  0  0  0  0  0  0
   -5.0458    2.8208    0.0000 C   0  0  0  0  0  0  0  0  0  0  0  0
   -4.3333    3.2333    0.0000 C   0  0  0  0  0  0  0  0  0  0  0  0
   -5.0458    1.9958    0.0000 C   0  0  0  0  0  0  0  0  0  0  0  0
   -4.3333    4.0417    0.0000 O   0  0  0  0  0  0  0  0  0  0  0  0
   -2.9000    3.2333    0.0000 O   0  0  0  0  0  0  0  0  0  0  0  0
   -2.9125   -0.8917    0.0000 C   0  0  0  0  0  0  0  0  0  0  0  0
   -1.4875   -1.7167    0.0000 C   0  0  0  0  0  0  0  0  0  0  0  0
   -4.3333    0.7583    0.0000 C   0  0  0  0  0  0  0  0  0  0  0  0
   -2.9000    1.5833    0.0000 C   0  0  0  0  0  0  0  0  0  0  0  0
   -1.4875   -0.8917    0.0000 C   0  0  0  0  0  0  0  0  0  0  0  0
   -2.2000   -0.4792    0.0000 C   0  0  0  0  0  0  0  0  0  0  0  0
   -2.2000   -2.1292    0.0000 C   0  0  0  0  0  0  0  0  0  0  0  0
   -2.9125   -1.7167    0.0000 C   0  0  0  0  0  0  0  0  0  0  0  0
   -3.6333   -0.4792    0.0000 O   0  0  0  0  0  0  0  0  0  0  0  0
   -3.6333    0.3458    0.0000 C   0  0  0  0  0  0  0  0  0  0  0  0
   -0.7708   -2.1292    0.0000 O   0  0  0  0  0  0  0  0  0  0  0  0
   -0.7708   -2.9542    0.0000 C   0  0  0  0  0  0  0  0  0  0  0  0
  2  1  2  0  0  0  0
  3  2  1  0  0  0  0
  4  5  1  0  0  0  0
  5  1  1  0  0  0  0
  6  4  2  0  0  0  0
  7  5  2  0  0  0  0
  8  1  1  0  0  0  0
  9 17  1  0  0  0  0
 10 15  2  0  0  0  0
 11  3  1  0  0  0  0
 12  2  1  0  0  0  0
 13 14  2  0  0  0  0
 14  9  1  0  0  0  0
 15 16  1  0  0  0  0
 16  9  2  0  0  0  0
 17 18  1  0  0  0  0
 18 11  1  0  0  0  0
 19 10  1  0  0  0  0
 20 19  1  0  0  0  0
  3  6  1  0  0  0  0
 10 13  1  0  0  0  0
M  END
>  <Code> (P2167665)
P2167665

>  <Number of H-Donors> (P2167665)
1

>  <Number of H-Acceptors> (P2167665)
5

>  <Number of Rotatable bonds> (P2167665)
5

>  <CLogP> (P2167665)
1.500000000000000e+000

>  <Number of Rings> (P2167665)
2

>  <PSA> (P2167665)
5.900000000000000e+001

$$$$

  -ISIS-  11102212342D

 23 25  0  0  0  0  0  0  0  0999 V2000
    4.4542   -2.3042    0.0000 C   0  0  0  0  0  0  0  0  0  0  0  0
    4.2917   -1.4875    0.0000 N   0  0  0  0  0  0  0  0  0  0  0  0
    3.7375   -2.7042    0.0000 O   0  0  0  0  0  0  0  0  0  0  0  0
    3.4750   -1.3917    0.0000 N   0  0  0  0  0  0  0  0  0  0  0  0
    3.1292   -2.1375    0.0000 C   0  0  0  0  0  0  0  0  0  0  0  0
    5.1667   -2.7292    0.0000 C   0  0  3  0  0  0  0  0  0  0  0  0
    6.5917   -2.7542    0.0000 C   0  0  0  0  0  0  0  0  0  0  0  0
    5.8875   -2.3292    0.0000 C   0  0  0  0  0  0  0  0  0  0  0  0
    7.3125   -2.3542    0.0000 N   0  0  0  0  0  0  0  0  0  0  0  0
    6.5792   -3.5792    0.0000 O   0  0  0  0  0  0  0  0  0  0  0  0
    5.1500   -3.5542    0.0000 C   0  0  0  0  0  0  0  0  0  0  0  0
    8.0250   -2.7792    0.0000 C   0  0  0  0  0  0  0  0  0  0  0  0
    2.3125   -2.2792    0.0000 C   0  0  0  0  0  0  0  0  0  0  0  0
    4.4292   -3.9667    0.0000 C   0  0  0  0  0  0  0  0  0  0  0  0
    5.8625   -3.9667    0.0000 C   0  0  0  0  0  0  0  0  0  0  0  0
    8.0125   -3.6125    0.0000 C   0  0  0  0  0  0  0  0  0  0  0  0
    8.7417   -2.3792    0.0000 C   0  0  0  0  0  0  0  0  0  0  0  0
    5.8625   -4.7917    0.0000 C   0  0  0  0  0  0  0  0  0  0  0  0
    4.4292   -4.8000    0.0000 C   0  0  0  0  0  0  0  0  0  0  0  0
    9.4542   -2.8042    0.0000 C   0  0  0  0  0  0  0  0  0  0  0  0
    8.7167   -4.0375    0.0000 C   0  0  0  0  0  0  0  0  0  0  0  0
    5.1417   -5.2125    0.0000 C   0  0  0  0  0  0  0  0  0  0  0  0
    9.4417   -3.6417    0.0000 C   0  0  0  0  0  0  0  0  0  0  0  0
  2  1  2  0  0  0  0
  3  1  1  0  0  0  0
  4  2  1  0  0  0  0
  5  3  1  0  0  0  0
  6  1  1  0  0  0  0
  7  8  1  0  0  0  0
  8  6  1  0  0  0  0
  9  7  1  0  0  0  0
 10  7  2  0  0  0  0
 11  6  1  0  0  0  0
 12  9  1  0  0  0  0
 13  5  1  0  0  0  0
 14 11  2  0  0  0  0
 15 11  1  0  0  0  0
 16 12  2  0  0  0  0
 17 12  1  0  0  0  0
 18 15  2  0  0  0  0
 19 14  1  0  0  0  0
 20 17  2  0  0  0  0
 21 16  1  0  0  0  0
 22 18  1  0  0  0  0
 23 20  1  0  0  0  0
  5  4  2  0  0  0  0
 22 19  2  0  0  0  0
 23 21  2  0  0  0  0
M  END
>  <Code> (P2143315)
P2143315

>  <Number of H-Donors> (P2143315)
1

>  <Number of H-Acceptors> (P2143315)
3

>  <Number of Rotatable bonds> (P2143315)
5

>  <CLogP> (P2143315)
2.200000000000000e+000

>  <Number of Rings> (P2143315)
3

>  <PSA> (P2143315)
6.800000000000000e+001

$$$$

  -ISIS-  11102212342D

 18 20  0  0  0  0  0  0  0  0999 V2000
    3.8542   -3.4792    0.0000 N   0  0  3  0  0  0  0  0  0  0  0  0
    5.2167   -3.0500    0.0000 C   0  0  0  0  0  0  0  0  0  0  0  0
    4.6667   -3.6542    0.0000 C   0  0  0  0  0  0  0  0  0  0  0  0
    4.9542   -2.2625    0.0000 C   0  0  0  0  0  0  0  0  0  0  0  0
    3.3000   -4.1042    0.0000 C   0  0  0  0  0  0  0  0  0  0  0  0
    3.5917   -2.7042    0.0000 C   0  0  0  0  0  0  0  0  0  0  0  0
    4.1542   -2.0875    0.0000 C   0  0  0  0  0  0  0  0  0  0  0  0
    3.5542   -4.8792    0.0000 C   0  0  0  0  0  0  0  0  0  0  0  0
    4.0667   -6.4542    0.0000 C   0  0  0  0  0  0  0  0  0  0  0  0
    4.3667   -5.0542    0.0000 C   0  0  0  0  0  0  0  0  0  0  0  0
    3.0042   -5.4917    0.0000 C   0  0  0  0  0  0  0  0  0  0  0  0
    4.6167   -5.8417    0.0000 C   0  0  0  0  0  0  0  0  0  0  0  0
    3.2625   -6.2792    0.0000 C   0  0  0  0  0  0  0  0  0  0  0  0
    4.3167   -7.2417    0.0000 O   0  0  0  0  0  0  0  0  0  0  0  0
    6.0167   -3.2167    0.0000 C   0  0  0  0  0  0  0  0  0  0  0  0
    5.5042   -1.6500    0.0000 C   0  0  0  0  0  0  0  0  0  0  0  0
    6.5667   -2.6042    0.0000 C   0  0  0  0  0  0  0  0  0  0  0  0
    6.3167   -1.8250    0.0000 C   0  0  0  0  0  0  0  0  0  0  0  0
  2  3  1  0  0  0  0
  3  1  1  0  0  0  0
  4  7  1  0  0  0  0
  5  1  1  0  0  0  0
  6  1  1  0  0  0  0
  7  6  1  0  0  0  0
  8  5  1  0  0  0  0
  9 13  1  0  0  0  0
 10  8  2  0  0  0  0
 11  8  1  0  0  0  0
 12 10  1  0  0  0  0
 13 11  2  0  0  0  0
 14  9  1  0  0  0  0
 15  2  1  0  0  0  0
 16  4  1  0  0  0  0
 17 15  2  0  0  0  0
 18 16  2  0  0  0  0
  2  4  2  0  0  0  0
 12  9  2  0  0  0  0
 17 18  1  0  0  0  0
M  END
>  <Code> (P2134220)
P2134220

>  <Number of H-Donors> (P2134220)
1

>  <Number of H-Acceptors> (P2134220)
2

>  <Number of Rotatable bonds> (P2134220)
2

>  <CLogP> (P2134220)
3.300000000000000e+000

>  <Number of Rings> (P2134220)
3

>  <PSA> (P2134220)
2.350000000000000e+001

$$$$

  -ISIS-  11102212342D

 24 28  0  0  0  0  0  0  0  0999 V2000
    3.1042    0.1208    0.0000 N   0  0  3  0  0  0  0  0  0  0  0  0
    1.6917   -0.6917    0.0000 C   0  0  0  0  0  0  0  0  0  0  0  0
    1.6917    0.1208    0.0000 C   0  0  0  0  0  0  0  0  0  0  0  0
    2.4042    0.5250    0.0000 C   0  0  0  0  0  0  0  0  0  0  0  0
    3.8042    0.5208    0.0000 C   0  0  0  0  0  0  0  0  0  0  0  0
    2.4000   -1.1125    0.0000 N   0  0  0  0  0  0  0  0  0  0  0  0
    0.9792   -1.1125    0.0000 N   0  0  3  0  0  0  0  0  0  0  0  0
    2.4042    1.3458    0.0000 N   0  0  0  0  0  0  0  0  0  0  0  0
    3.8125    1.3333    0.0000 N   0  0  0  0  0  0  0  0  0  0  0  0
    0.2792   -0.6917    0.0000 N   0  0  0  0  0  0  0  0  0  0  0  0
    3.1000   -0.6917    0.0000 C   0  0  0  0  0  0  0  0  0  0  0  0
    0.2792    0.1208    0.0000 C   0  0  0  0  0  0  0  0  0  0  0  0
    4.5042    0.1208    0.0000 C   0  0  0  0  0  0  0  0  0  0  0  0
    0.9792   -1.9500    0.0000 C   0  0  0  0  0  0  0  0  0  0  0  0
    4.5792   -0.6917    0.0000 O   0  0  0  0  0  0  0  0  0  0  0  0
    5.2500    0.4458    0.0000 C   0  0  0  0  0  0  0  0  0  0  0  0
    5.3792   -0.8667    0.0000 C   0  0  0  0  0  0  0  0  0  0  0  0
    5.7917   -0.1542    0.0000 C   0  0  0  0  0  0  0  0  0  0  0  0
    1.7042   -2.3667    0.0000 C   0  0  0  0  0  0  0  0  0  0  0  0
    0.2375   -2.3667    0.0000 C   0  0  0  0  0  0  0  0  0  0  0  0
    1.6917   -3.2167    0.0000 C   0  0  0  0  0  0  0  0  0  0  0  0
    0.2292   -3.2042    0.0000 C   0  0  0  0  0  0  0  0  0  0  0  0
    0.9542   -3.6375    0.0000 C   0  0  0  0  0  0  0  0  0  0  0  0
    0.9542   -4.5000    0.0000 C   0  0  0  0  0  0  0  0  0  0  0  0
  2  6  1  0  0  0  0
  3  4  1  0  0  0  0
  4  1  1  0  0  0  0
  5  1  1  0  0  0  0
  6 11  2  0  0  0  0
  7  2  1  0  0  0  0
  8  4  2  0  0  0  0
  9  5  2  0  0  0  0
 10 12  2  0  0  0  0
 11  1  1  0  0  0  0
 12  3  1  0  0  0  0
 13  5  1  0  0  0  0
 14  7  1  0  0  0  0
 15 13  1  0  0  0  0
 16 13  2  0  0  0  0
 17 15  1  0  0  0  0
 18 16  1  0  0  0  0
 19 14  1  0  0  0  0
 20 14  2  0  0  0  0
 21 19  2  0  0  0  0
 22 20  1  0  0  0  0
 23 22  2  0  0  0  0
 24 23  1  0  0  0  0
  9  8  1  0  0  0  0
  2  3  2  0  0  0  0
 18 17  2  0  0  0  0
  7 10  1  0  0  0  0
 23 21  1  0  0  0  0
M  END
>  <Code> (P2125531)
P2125531

>  <Number of H-Donors> (P2125531)
0

>  <Number of H-Acceptors> (P2125531)
4

>  <Number of Rotatable bonds> (P2125531)
2

>  <CLogP> (P2125531)
3.100000000000000e+000

>  <Number of Rings> (P2125531)
5

>  <PSA> (P2125531)
7.400000000000000e+001

$$$$

  -ISIS-  11102212342D

 21 22  0  0  0  0  0  0  0  0999 V2000
    4.9500   -1.4917    0.0000 N   0  0  3  0  0  0  0  0  0  0  0  0
    5.3292   -2.2250    0.0000 C   0  0  0  0  0  0  0  0  0  0  0  0
    4.1292   -1.6292    0.0000 C   0  0  0  0  0  0  0  0  0  0  0  0
    4.0167   -2.4542    0.0000 C   0  0  3  0  0  0  0  0  0  0  0  0
    4.7625   -2.8250    0.0000 N   0  0  0  0  0  0  0  0  0  0  0  0
    3.2917   -2.0417    0.0000 C   0  0  0  0  0  0  0  0  0  0  0  0
    5.3250   -0.7417    0.0000 C   0  0  0  0  0  0  0  0  0  0  0  0
    3.2917   -1.2167    0.0000 C   0  0  0  0  0  0  0  0  0  0  0  0
    4.8667   -0.0500    0.0000 C   0  0  0  0  0  0  0  0  0  0  0  0
    6.1542   -2.3417    0.0000 O   0  0  0  0  0  0  0  0  0  0  0  0
    2.5792   -0.8042    0.0000 C   0  0  0  0  0  0  0  0  0  0  0  0
    3.5292   -1.0542    0.0000 O   0  0  0  0  0  0  0  0  0  0  0  0
    2.5792   -2.4542    0.0000 C   0  0  0  0  0  0  0  0  0  0  0  0
    1.8667   -1.2167    0.0000 C   0  0  0  0  0  0  0  0  0  0  0  0
    4.0292   -0.0917    0.0000 O   0  0  0  0  0  0  0  0  0  0  0  0
    1.8667   -2.0417    0.0000 C   0  0  0  0  0  0  0  0  0  0  0  0
    3.6500   -3.2042    0.0000 C   0  0  0  0  0  0  0  0  0  0  0  0
    5.2375    0.6958    0.0000 O   0  0  0  0  0  0  0  0  0  0  0  0
    2.5750    0.0208    0.0000 C   0  0  0  0  0  0  0  0  0  0  0  0
    1.1542   -0.8042    0.0000 C   0  0  0  0  0  0  0  0  0  0  0  0
    4.1250   -3.8917    0.0000 C   0  0  0  0  0  0  0  0  0  0  0  0
  2  1  1  0  0  0  0
  3  1  1  0  0  0  0
  4  3  1  0  0  0  0
  5  2  1  0  0  0  0
  6  4  1  0  0  0  0
  7  1  1  0  0  0  0
  8  6  1  0  0  0  0
  9  7  1  0  0  0  0
 10  2  2  0  0  0  0
 11  8  2  0  0  0  0
 12  3  2  0  0  0  0
 13  6  2  0  0  0  0
 14 16  2  0  0  0  0
 15  9  2  0  0  0  0
 16 13  1  0  0  0  0
 17  4  1  0  0  0  0
 18  9  1  0  0  0  0
 19 11  1  0  0  0  0
 20 14  1  0  0  0  0
 21 17  1  0  0  0  0
  5  4  1  0  0  0  0
 14 11  1  0  0  0  0
M  END
>  <Code> (P2033074)
P2033074

>  <Number of H-Donors> (P2033074)
2

>  <Number of H-Acceptors> (P2033074)
4

>  <Number of Rotatable bonds> (P2033074)
4

>  <CLogP> (P2033074)
2.100000000000000e+000

>  <Number of Rings> (P2033074)
2

>  <PSA> (P2033074)
8.670000000000000e+001

$$$$

  -ISIS-  11102212342D

 13 13  0  0  0  0  0  0  0  0999 V2000
    2.5917   -0.9625    0.0000 C   0  0  3  0  0  0  0  0  0  0  0  0
    5.4500    0.6958    0.0000 C   0  0  0  0  0  0  0  0  0  0  0  0
    3.3042   -0.5500    0.0000 C   0  0  0  0  0  0  0  0  0  0  0  0
    4.7375    0.2833    0.0000 C   0  0  0  0  0  0  0  0  0  0  0  0
    5.4417    1.5208    0.0000 O   0  0  0  0  0  0  0  0  0  0  0  0
    3.3042    0.2750    0.0000 C   0  0  0  0  0  0  0  0  0  0  0  0
    4.0167   -0.9625    0.0000 C   0  0  0  0  0  0  0  0  0  0  0  0
    4.0167    0.6958    0.0000 C   0  0  0  0  0  0  0  0  0  0  0  0
    4.7375   -0.5500    0.0000 C   0  0  0  0  0  0  0  0  0  0  0  0
    1.8792   -0.5500    0.0000 F   0  0  0  0  0  0  0  0  0  0  0  0
    2.5917   -1.7875    0.0000 F   0  0  0  0  0  0  0  0  0  0  0  0
    2.3792   -0.1667    0.0000 F   0  0  0  0  0  0  0  0  0  0  0  0
    6.1667    0.2875    0.0000 O   0  0  0  0  0  0  0  0  0  0  0  0
  2  4  1  0  0  0  0
  3  1  1  0  0  0  0
  4  9  1  0  0  0  0
  5  2  2  0  0  0  0
  6  3  2  0  0  0  0
  7  3  1  0  0  0  0
  8  6  1  0  0  0  0
  9  7  2  0  0  0  0
 10  1  1  0  0  0  0
 11  1  1  0  0  0  0
 12  1  1  0  0  0  0
 13  2  1  0  0  0  0
  8  4  2  0  0  0  0
M  END
>  <Code> (P1904680)
P1904680

>  <Number of H-Donors> (P1904680)
1

>  <Number of H-Acceptors> (P1904680)
2

>  <Number of Rotatable bonds> (P1904680)
2

>  <CLogP> (P1904680)
2.400000000000000e+000

>  <Number of Rings> (P1904680)
1

>  <PSA> (P1904680)
3.730000000000000e+001

$$$$

  -ISIS-  11102212342D

 22 25  0  0  0  0  0  0  0  0999 V2000
    5.9542   -3.9125    0.0000 N   0  0  3  0  0  0  0  0  0  0  0  0
    5.9542   -4.7292    0.0000 C   0  0  0  0  0  0  0  0  0  0  0  0
    5.1500   -3.6667    0.0000 N   0  0  0  0  0  0  0  0  0  0  0  0
    6.6875   -3.4917    0.0000 C   0  0  0  0  0  0  0  0  0  0  0  0
    4.6542   -4.3167    0.0000 C   0  0  0  0  0  0  0  0  0  0  0  0
    6.6917   -5.1375    0.0000 N   0  0  0  0  0  0  0  0  0  0  0  0
    5.1542   -4.9792    0.0000 C   0  0  0  0  0  0  0  0  0  0  0  0
    7.4292   -3.9042    0.0000 C   0  0  0  0  0  0  0  0  0  0  0  0
    7.4292   -4.7167    0.0000 C   0  0  0  0  0  0  0  0  0  0  0  0
    6.6875   -2.6792    0.0000 C   0  0  3  0  0  0  0  0  0  0  0  0
    3.8292   -4.3167    0.0000 C   0  0  0  0  0  0  0  0  0  0  0  0
    8.1667   -5.1292    0.0000 C   0  0  0  0  0  0  0  0  0  0  0  0
    6.2542   -1.9792    0.0000 C   0  0  0  0  0  0  0  0  0  0  0  0
    7.1042   -1.9792    0.0000 C   0  0  0  0  0  0  0  0  0  0  0  0
    3.4250   -3.6125    0.0000 C   0  0  0  0  0  0  0  0  0  0  0  0
    8.1792   -5.9417    0.0000 O   0  0  0  0  0  0  0  0  0  0  0  0
    8.9000   -4.7167    0.0000 O   0  0  0  0  0  0  0  0  0  0  0  0
    3.8417   -2.9042    0.0000 F   0  0  0  0  0  0  0  0  0  0  0  0
    3.4250   -5.0417    0.0000 C   0  0  0  0  0  0  0  0  0  0  0  0
    2.6042   -3.6125    0.0000 C   0  0  0  0  0  0  0  0  0  0  0  0
    2.6042   -5.0417    0.0000 C   0  0  0  0  0  0  0  0  0  0  0  0
    2.1875   -4.3375    0.0000 C   0  0  0  0  0  0  0  0  0  0  0  0
  2  1  1  0  0  0  0
  3  1  1  0  0  0  0
  4  1  1  0  0  0  0
  5  3  2  0  0  0  0
  6  2  1  0  0  0  0
  7  2  2  0  0  0  0
  8  4  2  0  0  0  0
  9  8  1  0  0  0  0
 10  4  1  0  0  0  0
 11  5  1  0  0  0  0
 12  9  1  0  0  0  0
 13 10  1  0  0  0  0
 14 10  1  0  0  0  0
 15 11  1  0  0  0  0
 16 12  2  0  0  0  0
 17 12  1  0  0  0  0
 18 15  1  0  0  0  0
 19 11  2  0  0  0  0
 20 15  2  0  0  0  0
 21 19  1  0  0  0  0
 22 21  2  0  0  0  0
  5  7  1  0  0  0  0
 13 14  1  0  0  0  0
  6  9  2  0  0  0  0
 22 20  1  0  0  0  0
M  END
>  <Code> (P1850738)
P1850738

>  <Number of H-Donors> (P1850738)
1

>  <Number of H-Acceptors> (P1850738)
4

>  <Number of Rotatable bonds> (P1850738)
3

>  <CLogP> (P1850738)
3.400000000000000e+000

>  <Number of Rings> (P1850738)
4

>  <PSA> (P1850738)
6.750000000000000e+001

$$$$

  -ISIS-  11102212342D

 18 19  0  0  0  0  0  0  0  0999 V2000
    1.9000   -3.0167    0.0000 C   0  0  3  0  0  0  0  0  0  0  0  0
    4.0292   -3.4417    0.0000 C   0  0  0  0  0  0  0  0  0  0  0  0
    2.6125   -3.4292    0.0000 C   0  0  0  0  0  0  0  0  0  0  0  0
    3.3167   -3.0292    0.0000 C   0  0  0  0  0  0  0  0  0  0  0  0
    4.7542   -3.0417    0.0000 C   0  0  3  0  0  0  0  0  0  0  0  0
    5.4667   -3.4542    0.0000 C   0  0  3  0  0  0  0  0  0  0  0  0
    6.8917   -3.4542    0.0000 N   0  0  0  0  0  0  0  0  0  0  0  0
    1.1917   -2.6000    0.0000 F   0  0  0  0  0  0  0  0  0  0  0  0
    2.3167   -2.3125    0.0000 F   0  0  0  0  0  0  0  0  0  0  0  0
    1.4792   -3.7167    0.0000 F   0  0  0  0  0  0  0  0  0  0  0  0
    4.7542   -2.2167    0.0000 O   0  0  0  0  0  0  0  0  0  0  0  0
    6.1792   -3.0417    0.0000 C   0  0  0  0  0  0  0  0  0  0  0  0
    4.0292   -4.2792    0.0000 C   0  0  0  0  0  0  0  0  0  0  0  0
    2.6000   -4.2542    0.0000 C   0  0  0  0  0  0  0  0  0  0  0  0
    3.3042   -4.6792    0.0000 C   0  0  0  0  0  0  0  0  0  0  0  0
    6.8917   -4.2917    0.0000 C   0  0  0  0  0  0  0  0  0  0  0  0
    5.4542   -4.2792    0.0000 C   0  0  0  0  0  0  0  0  0  0  0  0
    6.1750   -4.7042    0.0000 C   0  0  0  0  0  0  0  0  0  0  0  0
  2  4  2  0  0  0  0
  3  1  1  0  0  0  0
  4  3  1  0  0  0  0
  5  2  1  0  0  0  0
  6  5  1  0  0  0  0
  7 12  1  0  0  0  0
  8  1  1  0  0  0  0
  9  1  1  0  0  0  0
 10  1  1  0  0  0  0
 11  5  1  0  0  0  0
 12  6  1  0  0  0  0
 13 15  2  0  0  0  0
 14  3  2  0  0  0  0
 15 14  1  0  0  0  0
 16 18  1  0  0  0  0
 17  6  1  0  0  0  0
 18 17  1  0  0  0  0
  2 13  1  0  0  0  0
 16  7  1  0  0  0  0
M  END
>  <Code> (P1821166)
P1821166

>  <Number of H-Donors> (P1821166)
2

>  <Number of H-Acceptors> (P1821166)
2

>  <Number of Rotatable bonds> (P1821166)
3

>  <CLogP> (P1821166)
2.400000000000000e+000

>  <Number of Rings> (P1821166)
2

>  <PSA> (P1821166)
3.230000000000000e+001

$$$$

  -ISIS-  11102212342D

 17 18  0  0  0  0  0  0  0  0999 V2000
    1.8917   -3.8667    0.0000 C   0  0  3  0  0  0  0  0  0  0  0  0
    2.6042   -4.2917    0.0000 C   0  0  0  0  0  0  0  0  0  0  0  0
    6.1792   -3.8792    0.0000 N   0  0  0  0  0  0  0  0  0  0  0  0
    3.3167   -3.8792    0.0000 C   0  0  0  0  0  0  0  0  0  0  0  0
    4.0375   -4.3000    0.0000 C   0  0  0  0  0  0  0  0  0  0  0  0
    6.1792   -3.0542    0.0000 C   0  0  0  0  0  0  0  0  0  0  0  0
    4.7500   -3.8792    0.0000 C   0  0  0  0  0  0  0  0  0  0  0  0
    5.4625   -4.3000    0.0000 C   0  0  0  0  0  0  0  0  0  0  0  0
    1.1792   -3.4542    0.0000 F   0  0  0  0  0  0  0  0  0  0  0  0
    2.3167   -3.1667    0.0000 F   0  0  0  0  0  0  0  0  0  0  0  0
    1.4792   -4.5875    0.0000 F   0  0  0  0  0  0  0  0  0  0  0  0
    4.7500   -3.0542    0.0000 C   0  0  0  0  0  0  0  0  0  0  0  0
    5.4625   -2.6417    0.0000 C   0  0  0  0  0  0  0  0  0  0  0  0
    6.8917   -2.6417    0.0000 Cl  0  0  0  0  0  0  0  0  0  0  0  0
    2.6042   -5.1167    0.0000 C   0  0  0  0  0  0  0  0  0  0  0  0
    4.0292   -5.1250    0.0000 C   0  0  0  0  0  0  0  0  0  0  0  0
    3.3167   -5.5292    0.0000 C   0  0  0  0  0  0  0  0  0  0  0  0
  2  1  1  0  0  0  0
  3  8  1  0  0  0  0
  4  2  1  0  0  0  0
  5  4  2  0  0  0  0
  6 13  1  0  0  0  0
  7  5  1  0  0  0  0
  8  7  2  0  0  0  0
  9  1  1  0  0  0  0
 10  1  1  0  0  0  0
 11  1  1  0  0  0  0
 12  7  1  0  0  0  0
 13 12  2  0  0  0  0
 14  6  1  0  0  0  0
 15  2  2  0  0  0  0
 16 17  2  0  0  0  0
 17 15  1  0  0  0  0
 16  5  1  0  0  0  0
  3  6  2  0  0  0  0
M  END
>  <Code> (P1820137)
P1820137

>  <Number of H-Donors> (P1820137)
0

>  <Number of H-Acceptors> (P1820137)
1

>  <Number of Rotatable bonds> (P1820137)
2

>  <CLogP> (P1820137)
4.000000000000000e+000

>  <Number of Rings> (P1820137)
2

>  <PSA> (P1820137)
1.290000000000000e+001

$$$$

  -ISIS-  11102212342D

 15 16  0  0  0  0  0  0  0  0999 V2000
    2.6500   -5.3750    0.0000 C   0  0  3  0  0  0  0  0  0  0  0  0
    3.3667   -4.9750    0.0000 C   0  0  0  0  0  0  0  0  0  0  0  0
    5.6125   -2.9167    0.0000 N   0  0  0  0  0  0  0  0  0  0  0  0
    4.8042   -4.1500    0.0000 C   0  0  0  0  0  0  0  0  0  0  0  0
    5.5250   -3.7417    0.0000 C   0  0  3  0  0  0  0  0  0  0  0  0
    3.3750   -4.1417    0.0000 C   0  0  0  0  0  0  0  0  0  0  0  0
    4.0875   -5.3917    0.0000 C   0  0  0  0  0  0  0  0  0  0  0  0
    1.9292   -5.7792    0.0000 F   0  0  0  0  0  0  0  0  0  0  0  0
    2.2417   -4.6542    0.0000 F   0  0  0  0  0  0  0  0  0  0  0  0
    3.0542   -6.0917    0.0000 F   0  0  0  0  0  0  0  0  0  0  0  0
    4.8042   -4.9792    0.0000 C   0  0  0  0  0  0  0  0  0  0  0  0
    4.0917   -3.7292    0.0000 C   0  0  0  0  0  0  0  0  0  0  0  0
    6.4167   -2.7500    0.0000 C   0  0  0  0  0  0  0  0  0  0  0  0
    6.2792   -4.0667    0.0000 C   0  0  0  0  0  0  0  0  0  0  0  0
    6.8292   -3.4625    0.0000 C   0  0  0  0  0  0  0  0  0  0  0  0
  2  1  1  0  0  0  0
  3  5  1  0  0  0  0
  4 11  1  0  0  0  0
  5  4  1  0  0  0  0
  6  2  2  0  0  0  0
  7  2  1  0  0  0  0
  8  1  1  0  0  0  0
  9  1  1  0  0  0  0
 10  1  1  0  0  0  0
 11  7  2  0  0  0  0
 12  6  1  0  0  0  0
 13  3  1  0  0  0  0
 14  5  1  0  0  0  0
 15 14  1  0  0  0  0
 12  4  2  0  0  0  0
 15 13  1  0  0  0  0
M  END
>  <Code> (P1792201)
P1792201

>  <Number of H-Donors> (P1792201)
1

>  <Number of H-Acceptors> (P1792201)
1

>  <Number of Rotatable bonds> (P1792201)
2

>  <CLogP> (P1792201)
2.800000000000000e+000

>  <Number of Rings> (P1792201)
2

>  <PSA> (P1792201)
1.200000000000000e+001

$$$$

  -ISIS-  11102212342D

 23 26  0  0  0  0  0  0  0  0999 V2000
    3.5417   -2.9167    0.0000 C   0  0  0  0  0  0  0  0  0  0  0  0
    2.8167   -3.3292    0.0000 N   0  0  0  0  0  0  0  0  0  0  0  0
    2.0917   -2.9167    0.0000 C   0  0  0  0  0  0  0  0  0  0  0  0
    2.1042   -2.0792    0.0000 N   0  0  0  0  0  0  0  0  0  0  0  0
    3.5417   -2.0917    0.0000 C   0  0  0  0  0  0  0  0  0  0  0  0
    7.6542   -2.5167    0.0000 N   0  0  0  0  0  0  0  0  0  0  0  0
    2.8292   -1.6750    0.0000 C   0  0  0  0  0  0  0  0  0  0  0  0
    4.2542   -3.3417    0.0000 N   0  0  0  0  0  0  0  0  0  0  0  0
    6.4000   -2.9292    0.0000 C   0  0  0  0  0  0  0  0  0  0  0  0
    7.1792   -3.1917    0.0000 N   0  0  0  0  0  0  0  0  0  0  0  0
    6.4000   -2.1042    0.0000 C   0  0  0  0  0  0  0  0  0  0  0  0
    5.6875   -3.3417    0.0000 C   0  0  0  0  0  0  0  0  0  0  0  0
    4.9750   -2.9292    0.0000 C   0  0  0  0  0  0  0  0  0  0  0  0
    7.1792   -1.8542    0.0000 C   0  0  0  0  0  0  0  0  0  0  0  0
    5.6875   -1.7000    0.0000 C   0  0  0  0  0  0  0  0  0  0  0  0
    1.3792   -3.3292    0.0000 C   0  0  3  0  0  0  0  0  0  0  0  0
    4.9750   -2.1042    0.0000 C   0  0  0  0  0  0  0  0  0  0  0  0
    4.2625   -1.6875    0.0000 C   0  0  0  0  0  0  0  0  0  0  0  0
    2.8292   -0.8417    0.0000 C   0  0  0  0  0  0  0  0  0  0  0  0
    1.3750   -4.1542    0.0000 C   0  0  0  0  0  0  0  0  0  0  0  0
    0.6625   -2.9042    0.0000 C   0  0  0  0  0  0  0  0  0  0  0  0
    4.2667   -0.8625    0.0000 C   0  0  0  0  0  0  0  0  0  0  0  0
    3.5542   -0.4375    0.0000 C   0  0  0  0  0  0  0  0  0  0  0  0
  2  1  2  0  0  0  0
  3  2  1  0  0  0  0
  4  7  1  0  0  0  0
  5  1  1  0  0  0  0
  6 10  1  0  0  0  0
  7  5  1  0  0  0  0
  8  1  1  0  0  0  0
  9 12  1  0  0  0  0
 10  9  1  0  0  0  0
 11 15  1  0  0  0  0
 12 13  2  0  0  0  0
 13  8  1  0  0  0  0
 14 11  1  0  0  0  0
 15 17  2  0  0  0  0
 16  3  1  0  0  0  0
 17 13  1  0  0  0  0
 18  5  2  0  0  0  0
 19  7  2  0  0  0  0
 20 16  1  0  0  0  0
 21 16  1  0  0  0  0
 22 18  1  0  0  0  0
 23 22  2  0  0  0  0
  4  3  2  0  0  0  0
 19 23  1  0  0  0  0
 11  9  2  0  0  0  0
 14  6  2  0  0  0  0
M  END
>  <Code> (P1742993)
P1742993

>  <Number of H-Donors> (P1742993)
2

>  <Number of H-Acceptors> (P1742993)
4

>  <Number of Rotatable bonds> (P1742993)
3

>  <CLogP> (P1742993)
3.600000000000000e+000

>  <Number of Rings> (P1742993)
4

>  <PSA> (P1742993)
6.650000000000000e+001

$$$$

  -ISIS-  11102212342D

 26 28  0  0  0  0  0  0  0  0999 V2000
    0.8667   -2.8875    0.0000 C   0  0  0  0  0  0  0  0  0  0  0  0
    0.1542   -3.3042    0.0000 N   0  0  0  0  0  0  0  0  0  0  0  0
    0.8667   -2.0667    0.0000 C   0  0  0  0  0  0  0  0  0  0  0  0
   -0.5583   -2.8875    0.0000 C   0  0  0  0  0  0  0  0  0  0  0  0
    0.1542   -1.6500    0.0000 C   0  0  0  0  0  0  0  0  0  0  0  0
   -0.5583   -2.0625    0.0000 N   0  0  0  0  0  0  0  0  0  0  0  0
   -1.2750   -3.3000    0.0000 C   0  0  3  0  0  0  0  0  0  0  0  0
    1.5792   -1.6542    0.0000 C   0  0  0  0  0  0  0  0  0  0  0  0
    0.1542   -0.8250    0.0000 C   0  0  0  0  0  0  0  0  0  0  0  0
    1.5875   -3.3000    0.0000 N   0  0  0  0  0  0  0  0  0  0  0  0
    1.5875   -0.8292    0.0000 C   0  0  0  0  0  0  0  0  0  0  0  0
    0.8667   -0.4167    0.0000 C   0  0  0  0  0  0  0  0  0  0  0  0
   -1.9875   -2.8875    0.0000 F   0  0  0  0  0  0  0  0  0  0  0  0
   -1.2750   -4.1250    0.0000 F   0  0  0  0  0  0  0  0  0  0  0  0
   -1.4875   -2.5042    0.0000 F   0  0  0  0  0  0  0  0  0  0  0  0
    2.3042   -2.8875    0.0000 C   0  0  1  0  0  0  0  0  0  0  0  0
    2.3000   -0.4250    0.0000 O   0  0  0  0  0  0  0  0  0  0  0  0
    0.8750    0.4083    0.0000 O   0  0  0  0  0  0  0  0  0  0  0  0
    3.7250   -2.0625    0.0000 C   0  0  1  0  0  0  0  0  0  0  0  0
    2.3042   -2.0625    0.0000 C   0  0  0  0  0  0  0  0  0  0  0  0
    3.0125   -3.2917    0.0000 C   0  0  0  0  0  0  0  0  0  0  0  0
    3.0125   -1.6417    0.0000 C   0  0  0  0  0  0  0  0  0  0  0  0
    3.7250   -2.8875    0.0000 C   0  0  0  0  0  0  0  0  0  0  0  0
    4.4417   -1.6500    0.0000 O   0  0  0  0  0  0  0  0  0  0  0  0
    1.5917    0.8208    0.0000 C   0  0  0  0  0  0  0  0  0  0  0  0
    2.3042    0.4000    0.0000 C   0  0  0  0  0  0  0  0  0  0  0  0
  2  1  2  0  0  0  0
  3  1  1  0  0  0  0
  4  2  1  0  0  0  0
  5  3  1  0  0  0  0
  6  5  1  0  0  0  0
  7  4  1  0  0  0  0
  8  3  2  0  0  0  0
  9  5  2  0  0  0  0
 10  1  1  0  0  0  0
 11  8  1  0  0  0  0
 12 11  2  0  0  0  0
 13  7  1  0  0  0  0
 14  7  1  0  0  0  0
 15  7  1  0  0  0  0
 16 10  1  1  0  0  0
 17 11  1  0  0  0  0
 18 12  1  0  0  0  0
 19 23  1  0  0  0  0
 20 16  1  0  0  0  0
 21 16  1  0  0  0  0
 22 20  1  0  0  0  0
 23 21  1  0  0  0  0
 19 24  1  6  0  0  0
 25 18  1  0  0  0  0
 26 17  1  0  0  0  0
  6  4  2  0  0  0  0
 22 19  1  0  0  0  0
 12  9  1  0  0  0  0
M  END
>  <Code> (P1738416)
P1738416

>  <Number of H-Donors> (P1738416)
2

>  <Number of H-Acceptors> (P1738416)
6

>  <Number of Rotatable bonds> (P1738416)
5

>  <CLogP> (P1738416)
2.900000000000000e+000

>  <Number of Rings> (P1738416)
3

>  <PSA> (P1738416)
7.650000000000000e+001

$$$$

  -ISIS-  11102212342D

 17 19  0  0  0  0  0  0  0  0999 V2000
    8.4792    0.2083    0.0000 C   0  0  0  0  0  0  0  0  0  0  0  0
    7.7667    0.6208    0.0000 C   0  0  0  0  0  0  0  0  0  0  0  0
    8.4750   -0.6250    0.0000 C   0  0  0  0  0  0  0  0  0  0  0  0
    8.7667    1.5208    0.0000 N   0  0  0  0  0  0  0  0  0  0  0  0
    7.9375    1.4333    0.0000 N   0  0  3  0  0  0  0  0  0  0  0  0
    9.1000    0.7583    0.0000 C   0  0  0  0  0  0  0  0  0  0  0  0
    7.0500    0.2125    0.0000 N   0  0  0  0  0  0  0  0  0  0  0  0
    7.7625   -1.0375    0.0000 N   0  0  0  0  0  0  0  0  0  0  0  0
    9.2000   -1.0417    0.0000 N   0  0  0  0  0  0  0  0  0  0  0  0
    7.0417   -0.6125    0.0000 C   0  0  0  0  0  0  0  0  0  0  0  0
    9.9167   -0.6292    0.0000 C   0  0  3  0  0  0  0  0  0  0  0  0
    7.3917    2.0583    0.0000 C   0  0  0  0  0  0  0  0  0  0  0  0
   10.6167   -1.0375    0.0000 C   0  0  0  0  0  0  0  0  0  0  0  0
    9.9167    0.1875    0.0000 C   0  0  0  0  0  0  0  0  0  0  0  0
   10.6167    0.6083    0.0000 C   0  0  0  0  0  0  0  0  0  0  0  0
   11.3292   -0.6292    0.0000 C   0  0  0  0  0  0  0  0  0  0  0  0
   11.3292    0.1875    0.0000 C   0  0  0  0  0  0  0  0  0  0  0  0
  2  1  2  0  0  0  0
  3  1  1  0  0  0  0
  4  6  2  0  0  0  0
  5  2  1  0  0  0  0
  6  1  1  0  0  0  0
  7  2  1  0  0  0  0
  8  3  2  0  0  0  0
  9  3  1  0  0  0  0
 10  8  1  0  0  0  0
 11  9  1  0  0  0  0
 12  5  1  0  0  0  0
 13 11  1  0  0  0  0
 14 11  1  0  0  0  0
 15 14  1  0  0  0  0
 16 13  1  0  0  0  0
 17 15  1  0  0  0  0
  4  5  1  0  0  0  0
  7 10  2  0  0  0  0
 17 16  1  0  0  0  0
M  END
>  <Code> (P1737356)
P1737356

>  <Number of H-Donors> (P1737356)
1

>  <Number of H-Acceptors> (P1737356)
4

>  <Number of Rotatable bonds> (P1737356)
2

>  <CLogP> (P1737356)
1.800000000000000e+000

>  <Number of Rings> (P1737356)
3

>  <PSA> (P1737356)
5.559999999999999e+001

$$$$

  -ISIS-  11102212342D

 16 18  0  0  0  0  0  0  0  0999 V2000
    6.4042   -0.4250    0.0000 C   0  0  0  0  0  0  0  0  0  0  0  0
    5.5917   -0.3375    0.0000 C   0  0  0  0  0  0  0  0  0  0  0  0
    6.7417   -1.1792    0.0000 C   0  0  0  0  0  0  0  0  0  0  0  0
    6.1375    0.8750    0.0000 N   0  0  0  0  0  0  0  0  0  0  0  0
    5.4167    0.4708    0.0000 N   0  0  3  0  0  0  0  0  0  0  0  0
    6.7417    0.3208    0.0000 C   0  0  0  0  0  0  0  0  0  0  0  0
    5.0917   -1.0000    0.0000 N   0  0  0  0  0  0  0  0  0  0  0  0
    6.2542   -1.8500    0.0000 N   0  0  0  0  0  0  0  0  0  0  0  0
    7.5625   -1.2750    0.0000 N   0  0  0  0  0  0  0  0  0  0  0  0
    5.4292   -1.7625    0.0000 C   0  0  0  0  0  0  0  0  0  0  0  0
    8.0500   -0.6042    0.0000 C   0  0  3  0  0  0  0  0  0  0  0  0
    4.6667    0.8083    0.0000 C   0  0  0  0  0  0  0  0  0  0  0  0
    7.7917    0.1750    0.0000 C   0  0  0  0  0  0  0  0  0  0  0  0
    8.8750   -0.6042    0.0000 C   0  0  0  0  0  0  0  0  0  0  0  0
    9.1250    0.1750    0.0000 C   0  0  0  0  0  0  0  0  0  0  0  0
    8.4625    0.6583    0.0000 C   0  0  0  0  0  0  0  0  0  0  0  0
  2  1  2  0  0  0  0
  3  1  1  0  0  0  0
  4  6  2  0  0  0  0
  5  2  1  0  0  0  0
  6  1  1  0  0  0  0
  7  2  1  0  0  0  0
  8  3  2  0  0  0  0
  9  3  1  0  0  0  0
 10  8  1  0  0  0  0
 11  9  1  0  0  0  0
 12  5  1  0  0  0  0
 13 11  1  0  0  0  0
 14 11  1  0  0  0  0
 15 14  1  0  0  0  0
 16 13  1  0  0  0  0
  4  5  1  0  0  0  0
  7 10  2  0  0  0  0
 16 15  1  0  0  0  0
M  END
>  <Code> (P1737355)
P1737355

>  <Number of H-Donors> (P1737355)
1

>  <Number of H-Acceptors> (P1737355)
4

>  <Number of Rotatable bonds> (P1737355)
2

>  <CLogP> (P1737355)
1.400000000000000e+000

>  <Number of Rings> (P1737355)
3

>  <PSA> (P1737355)
5.559999999999999e+001

$$$$

  -ISIS-  11102212342D

 23 25  0  0  0  0  0  0  0  0999 V2000
    0.8667   -2.8875    0.0000 C   0  0  0  0  0  0  0  0  0  0  0  0
   -0.5583   -2.8875    0.0000 C   0  0  0  0  0  0  0  0  0  0  0  0
    0.1542   -3.3042    0.0000 N   0  0  0  0  0  0  0  0  0  0  0  0
   -0.5583   -2.0625    0.0000 N   0  0  0  0  0  0  0  0  0  0  0  0
    0.8667   -2.0667    0.0000 C   0  0  0  0  0  0  0  0  0  0  0  0
    0.1542   -1.6542    0.0000 C   0  0  0  0  0  0  0  0  0  0  0  0
   -1.2750   -3.3000    0.0000 C   0  0  3  0  0  0  0  0  0  0  0  0
    1.5875   -3.3000    0.0000 N   0  0  0  0  0  0  0  0  0  0  0  0
    0.1542   -0.8250    0.0000 C   0  0  0  0  0  0  0  0  0  0  0  0
   -1.9875   -2.8875    0.0000 F   0  0  0  0  0  0  0  0  0  0  0  0
   -1.2750   -4.1250    0.0000 F   0  0  0  0  0  0  0  0  0  0  0  0
   -1.4875   -2.5042    0.0000 F   0  0  0  0  0  0  0  0  0  0  0  0
    2.3042   -2.8875    0.0000 C   0  0  2  0  0  0  0  0  0  0  0  0
    1.5792   -1.6542    0.0000 C   0  0  0  0  0  0  0  0  0  0  0  0
   -0.5583   -0.4125    0.0000 F   0  0  0  0  0  0  0  0  0  0  0  0
    3.7250   -2.0625    0.0000 C   0  0  2  0  0  0  0  0  0  0  0  0
    3.0125   -3.2917    0.0000 C   0  0  0  0  0  0  0  0  0  0  0  0
    2.3042   -2.0625    0.0000 C   0  0  0  0  0  0  0  0  0  0  0  0
    3.7250   -2.8875    0.0000 C   0  0  0  0  0  0  0  0  0  0  0  0
    3.0125   -1.6417    0.0000 C   0  0  0  0  0  0  0  0  0  0  0  0
    4.4417   -1.6500    0.0000 O   0  0  0  0  0  0  0  0  0  0  0  0
    1.5875   -0.8292    0.0000 C   0  0  0  0  0  0  0  0  0  0  0  0
    0.8667   -0.4167    0.0000 C   0  0  0  0  0  0  0  0  0  0  0  0
  2  3  1  0  0  0  0
  3  1  2  0  0  0  0
  4  6  1  0  0  0  0
  5  1  1  0  0  0  0
  6  5  1  0  0  0  0
  7  2  1  0  0  0  0
  8  1  1  0  0  0  0
  9  6  2  0  0  0  0
 10  7  1  0  0  0  0
 11  7  1  0  0  0  0
 12  7  1  0  0  0  0
 13  8  1  1  0  0  0
 14  5  2  0  0  0  0
 15  9  1  0  0  0  0
 16 20  1  0  0  0  0
 17 13  1  0  0  0  0
 18 13  1  0  0  0  0
 19 17  1  0  0  0  0
 20 18  1  0  0  0  0
 16 21  1  6  0  0  0
 22 14  1  0  0  0  0
 23 22  2  0  0  0  0
  4  2  2  0  0  0  0
 19 16  1  0  0  0  0
  9 23  1  0  0  0  0
M  END
>  <Code> (P1737188)
P1737188

>  <Number of H-Donors> (P1737188)
2

>  <Number of H-Acceptors> (P1737188)
4

>  <Number of Rotatable bonds> (P1737188)
3

>  <CLogP> (P1737188)
3.100000000000000e+000

>  <Number of Rings> (P1737188)
3

>  <PSA> (P1737188)
5.800000000000000e+001

$$$$

  -ISIS-  11102212342D

 19 21  0  0  0  0  0  0  0  0999 V2000
    1.8542    0.4208    0.0000 C   0  0  0  0  0  0  0  0  0  0  0  0
    1.1125    0.0583    0.0000 N   0  0  0  0  0  0  0  0  0  0  0  0
    0.4250    0.5250    0.0000 C   0  0  0  0  0  0  0  0  0  0  0  0
    1.9167    1.2333    0.0000 C   0  0  0  0  0  0  0  0  0  0  0  0
    0.4917    1.3500    0.0000 N   0  0  0  0  0  0  0  0  0  0  0  0
   -0.3083    0.1708    0.0000 C   0  0  3  0  0  0  0  0  0  0  0  0
    1.2375    1.7083    0.0000 C   0  0  0  0  0  0  0  0  0  0  0  0
    2.5375   -0.0500    0.0000 N   0  0  0  0  0  0  0  0  0  0  0  0
    3.2792    0.3083    0.0000 C   0  0  3  0  0  0  0  0  0  0  0  0
    2.6625    1.5958    0.0000 C   0  0  0  0  0  0  0  0  0  0  0  0
    4.1000    0.2458    0.0000 C   0  0  0  0  0  0  0  0  0  0  0  0
    3.7417    0.9875    0.0000 C   0  0  0  0  0  0  0  0  0  0  0  0
    1.3000    2.5333    0.0000 C   0  0  0  0  0  0  0  0  0  0  0  0
   -0.9958    0.6375    0.0000 F   0  0  0  0  0  0  0  0  0  0  0  0
   -0.3750   -0.6417    0.0000 F   0  0  0  0  0  0  0  0  0  0  0  0
   -0.4625    0.9833    0.0000 F   0  0  0  0  0  0  0  0  0  0  0  0
    2.7250    2.4083    0.0000 C   0  0  0  0  0  0  0  0  0  0  0  0
    2.0500    2.8833    0.0000 C   0  0  0  0  0  0  0  0  0  0  0  0
    3.4750    2.7708    0.0000 F   0  0  0  0  0  0  0  0  0  0  0  0
  2  1  2  0  0  0  0
  3  2  1  0  0  0  0
  4  1  1  0  0  0  0
  5  7  1  0  0  0  0
  6  3  1  0  0  0  0
  7  4  1  0  0  0  0
  8  1  1  0  0  0  0
  9  8  1  0  0  0  0
 10  4  2  0  0  0  0
 11  9  1  0  0  0  0
 12  9  1  0  0  0  0
 13  7  2  0  0  0  0
 14  6  1  0  0  0  0
 15  6  1  0  0  0  0
 16  6  1  0  0  0  0
 17 10  1  0  0  0  0
 18 17  2  0  0  0  0
 19 17  1  0  0  0  0
 11 12  1  0  0  0  0
  5  3  2  0  0  0  0
 13 18  1  0  0  0  0
M  END
>  <Code> (P1736935)
P1736935

>  <Number of H-Donors> (P1736935)
1

>  <Number of H-Acceptors> (P1736935)
3

>  <Number of Rotatable bonds> (P1736935)
3

>  <CLogP> (P1736935)
3.000000000000000e+000

>  <Number of Rings> (P1736935)
3

>  <PSA> (P1736935)
3.780000000000000e+001

$$$$

  -ISIS-  11102212342D

 24 26  0  0  0  0  0  0  0  0999 V2000
    0.8667   -2.8875    0.0000 C   0  0  0  0  0  0  0  0  0  0  0  0
    0.1542   -3.3042    0.0000 N   0  0  0  0  0  0  0  0  0  0  0  0
   -0.5583   -2.8875    0.0000 C   0  0  0  0  0  0  0  0  0  0  0  0
    0.8667   -2.0667    0.0000 C   0  0  0  0  0  0  0  0  0  0  0  0
   -0.5583   -2.0625    0.0000 N   0  0  0  0  0  0  0  0  0  0  0  0
    0.1542   -1.6500    0.0000 C   0  0  0  0  0  0  0  0  0  0  0  0
   -1.2750   -3.3000    0.0000 C   0  0  3  0  0  0  0  0  0  0  0  0
    1.5875   -3.3000    0.0000 N   0  0  0  0  0  0  0  0  0  0  0  0
    0.1542   -0.8250    0.0000 C   0  0  0  0  0  0  0  0  0  0  0  0
    1.5792   -1.6542    0.0000 C   0  0  0  0  0  0  0  0  0  0  0  0
   -1.9875   -2.8875    0.0000 F   0  0  0  0  0  0  0  0  0  0  0  0
   -1.2750   -4.1250    0.0000 F   0  0  0  0  0  0  0  0  0  0  0  0
   -1.4875   -2.5042    0.0000 F   0  0  0  0  0  0  0  0  0  0  0  0
    0.8667   -0.4167    0.0000 C   0  0  0  0  0  0  0  0  0  0  0  0
    2.3042   -2.8875    0.0000 C   0  0  1  0  0  0  0  0  0  0  0  0
    1.5875   -0.8292    0.0000 C   0  0  0  0  0  0  0  0  0  0  0  0
    3.7250   -2.0625    0.0000 C   0  0  1  0  0  0  0  0  0  0  0  0
    2.3042   -2.0625    0.0000 C   0  0  0  0  0  0  0  0  0  0  0  0
    3.0125   -3.2917    0.0000 C   0  0  0  0  0  0  0  0  0  0  0  0
    3.0125   -1.6417    0.0000 C   0  0  0  0  0  0  0  0  0  0  0  0
    3.7250   -2.8875    0.0000 C   0  0  0  0  0  0  0  0  0  0  0  0
    0.8750    0.4083    0.0000 O   0  0  0  0  0  0  0  0  0  0  0  0
    4.4417   -1.6500    0.0000 O   0  0  0  0  0  0  0  0  0  0  0  0
    1.5917    0.8208    0.0000 C   0  0  0  0  0  0  0  0  0  0  0  0
  2  1  2  0  0  0  0
  3  2  1  0  0  0  0
  4  1  1  0  0  0  0
  5  6  1  0  0  0  0
  6  4  1  0  0  0  0
  7  3  1  0  0  0  0
  8  1  1  0  0  0  0
  9  6  2  0  0  0  0
 10  4  2  0  0  0  0
 11  7  1  0  0  0  0
 12  7  1  0  0  0  0
 13  7  1  0  0  0  0
 14 16  2  0  0  0  0
 15  8  1  1  0  0  0
 16 10  1  0  0  0  0
 17 21  1  0  0  0  0
 18 15  1  0  0  0  0
 19 15  1  0  0  0  0
 20 18  1  0  0  0  0
 21 19  1  0  0  0  0
 22 14  1  0  0  0  0
 17 23  1  6  0  0  0
 24 22  1  0  0  0  0
  5  3  2  0  0  0  0
 17 20  1  0  0  0  0
  9 14  1  0  0  0  0
M  END
>  <Code> (P1736385)
P1736385

>  <Number of H-Donors> (P1736385)
2

>  <Number of H-Acceptors> (P1736385)
5

>  <Number of Rotatable bonds> (P1736385)
4

>  <CLogP> (P1736385)
2.900000000000000e+000

>  <Number of Rings> (P1736385)
3

>  <PSA> (P1736385)
6.730000000000001e+001

$$$$

  -ISIS-  11102212342D

 15 16  0  0  0  0  0  0  0  0999 V2000
    3.0750   -6.5750    0.0000 C   0  0  0  0  0  0  0  0  0  0  0  0
    3.4125   -5.8167    0.0000 N   0  0  0  0  0  0  0  0  0  0  0  0
    2.8000   -5.2667    0.0000 C   0  0  0  0  0  0  0  0  0  0  0  0
    2.0875   -5.6792    0.0000 N   0  0  3  0  0  0  0  0  0  0  0  0
    2.2542   -6.4875    0.0000 C   0  0  0  0  0  0  0  0  0  0  0  0
    3.4875   -7.2875    0.0000 C   0  0  0  0  0  0  0  0  0  0  0  0
    2.8000   -4.4417    0.0000 C   0  0  0  0  0  0  0  0  0  0  0  0
    1.3667   -5.2667    0.0000 C   0  0  0  0  0  0  0  0  0  0  0  0
    2.0792   -4.0292    0.0000 C   0  0  0  0  0  0  0  0  0  0  0  0
    1.3667   -4.4417    0.0000 C   0  0  0  0  0  0  0  0  0  0  0  0
    4.3125   -7.2917    0.0000 O   0  0  0  0  0  0  0  0  0  0  0  0
    3.0667   -8.0042    0.0000 O   0  0  0  0  0  0  0  0  0  0  0  0
    2.0792   -3.2042    0.0000 C   0  0  0  0  0  0  0  0  0  0  0  0
    2.2417   -8.0042    0.0000 C   0  0  0  0  0  0  0  0  0  0  0  0
    1.8292   -8.7167    0.0000 C   0  0  0  0  0  0  0  0  0  0  0  0
  2  1  1  0  0  0  0
  3  2  2  0  0  0  0
  4  5  1  0  0  0  0
  5  1  2  0  0  0  0
  6  1  1  0  0  0  0
  7  3  1  0  0  0  0
  8  4  1  0  0  0  0
  9  7  2  0  0  0  0
 10  8  2  0  0  0  0
 11  6  2  0  0  0  0
 12  6  1  0  0  0  0
 13  9  1  0  0  0  0
 14 12  1  0  0  0  0
 15 14  1  0  0  0  0
  4  3  1  0  0  0  0
 10  9  1  0  0  0  0
M  END
>  <Code> (P1705444)
P1705444

>  <Number of H-Donors> (P1705444)
0

>  <Number of H-Acceptors> (P1705444)
3

>  <Number of Rotatable bonds> (P1705444)
3

>  <CLogP> (P1705444)
1.700000000000000e+000

>  <Number of Rings> (P1705444)
2

>  <PSA> (P1705444)
4.359999999999999e+001

$$$$

  -ISIS-  11102212342D

 28 31  0  0  0  0  0  0  0  0999 V2000
    1.6875   -0.2792    0.0000 C   0  0  0  0  0  0  0  0  0  0  0  0
    0.4125   -2.2500    0.0000 S   0  0  3  0  0  0  0  0  0  0  0  0
    2.4125   -0.6792    0.0000 C   0  0  0  0  0  0  0  0  0  0  0  0
    0.9375   -0.6250    0.0000 O   0  0  0  0  0  0  0  0  0  0  0  0
    1.5792    0.5500    0.0000 C   0  0  0  0  0  0  0  0  0  0  0  0
    2.4250   -1.5125    0.0000 N   0  0  3  0  0  0  0  0  0  0  0  0
    0.3750   -0.0250    0.0000 C   0  0  0  0  0  0  0  0  0  0  0  0
    0.7750    0.6958    0.0000 C   0  0  0  0  0  0  0  0  0  0  0  0
    0.9500   -1.6250    0.0000 C   0  0  0  0  0  0  0  0  0  0  0  0
    3.9292   -1.6500    0.0000 C   0  0  0  0  0  0  0  0  0  0  0  0
    3.1500   -1.9125    0.0000 C   0  0  0  0  0  0  0  0  0  0  0  0
    1.7125   -1.9375    0.0000 C   0  0  3  0  0  0  0  0  0  0  0  0
    4.1750   -0.8625    0.0000 C   0  0  0  0  0  0  0  0  0  0  0  0
    4.6125   -2.1250    0.0000 S   0  0  0  0  0  0  0  0  0  0  0  0
   -0.2333   -2.7500    0.0000 O   0  0  0  0  0  0  0  0  0  0  0  0
   -0.1000   -1.6000    0.0000 O   0  0  0  0  0  0  0  0  0  0  0  0
    0.3500    1.4000    0.0000 C   0  0  0  0  0  0  0  0  0  0  0  0
    5.2625   -1.6250    0.0000 C   0  0  0  0  0  0  0  0  0  0  0  0
    1.6417   -2.7667    0.0000 C   0  0  0  0  0  0  0  0  0  0  0  0
    3.1167   -0.2542    0.0000 O   0  0  0  0  0  0  0  0  0  0  0  0
    0.8375   -2.9542    0.0000 C   0  0  0  0  0  0  0  0  0  0  0  0
   -0.4375   -0.0417    0.0000 C   0  0  0  0  0  0  0  0  0  0  0  0
    4.9875   -0.8375    0.0000 C   0  0  0  0  0  0  0  0  0  0  0  0
   -0.4625    1.3875    0.0000 C   0  0  0  0  0  0  0  0  0  0  0  0
   -0.8625    0.6625    0.0000 C   0  0  0  0  0  0  0  0  0  0  0  0
    2.1792    1.1208    0.0000 C   0  0  0  0  0  0  0  0  0  0  0  0
    3.6750   -0.2000    0.0000 C   0  0  0  0  0  0  0  0  0  0  0  0
   -1.6875    0.6458    0.0000 C   0  0  0  0  0  0  0  0  0  0  0  0
  2  9  1  0  0  0  0
  3  1  1  0  0  0  0
  4  1  1  0  0  0  0
  5  1  2  0  0  0  0
  6  3  1  0  0  0  0
  7  4  1  0  0  0  0
  8  5  1  0  0  0  0
  9 12  1  0  0  0  0
 10 11  1  0  0  0  0
 11  6  1  0  0  0  0
 12  6  1  0  0  0  0
 13 10  2  0  0  0  0
 14 10  1  0  0  0  0
 15  2  2  0  0  0  0
 16  2  2  0  0  0  0
 17  8  1  0  0  0  0
 18 14  1  0  0  0  0
 19 12  1  0  0  0  0
 20  3  2  0  0  0  0
 21 19  1  0  0  0  0
 22  7  1  0  0  0  0
 23 13  1  0  0  0  0
 24 17  2  0  0  0  0
 25 22  2  0  0  0  0
 26  5  1  0  0  0  0
 27 13  1  0  0  0  0
 28 25  1  0  0  0  0
  7  8  2  0  0  0  0
 24 25  1  0  0  0  0
  2 21  1  0  0  0  0
 18 23  2  0  0  0  0
M  END
>  <Code> (P1691774)
P1691774

>  <Number of H-Donors> (P1691774)
0

>  <Number of H-Acceptors> (P1691774)
3

>  <Number of Rotatable bonds> (P1691774)
4

>  <CLogP> (P1691774)
4.100000000000000e+000

>  <Number of Rings> (P1691774)
4

>  <PSA> (P1691774)
1.042000000000000e+002

$$$$

  -ISIS-  11102212342D

 30 33  0  0  0  0  0  0  0  0999 V2000
    3.3000   -0.0417    0.0000 C   0  0  0  0  0  0  0  0  0  0  0  0
    3.7167   -1.3125    0.0000 N   0  0  3  0  0  0  0  0  0  0  0  0
    4.1292   -0.0292    0.0000 C   0  0  0  0  0  0  0  0  0  0  0  0
    4.3875   -0.8250    0.0000 C   0  0  0  0  0  0  0  0  0  0  0  0
    3.0500   -0.8250    0.0000 C   0  0  3  0  0  0  0  0  0  0  0  0
    1.9875    0.6250    0.0000 C   0  0  0  0  0  0  0  0  0  0  0  0
    2.8125    0.6208    0.0000 C   0  0  0  0  0  0  0  0  0  0  0  0
    1.5000   -0.0292    0.0000 O   0  0  0  0  0  0  0  0  0  0  0  0
    2.3125   -1.2125    0.0000 C   0  0  0  0  0  0  0  0  0  0  0  0
    1.5000    1.3125    0.0000 C   0  0  0  0  0  0  0  0  0  0  0  0
    0.7125    0.2375    0.0000 C   0  0  0  0  0  0  0  0  0  0  0  0
    0.7250    1.0625    0.0000 C   0  0  0  0  0  0  0  0  0  0  0  0
    2.2875   -2.0292    0.0000 C   0  0  0  0  0  0  0  0  0  0  0  0
    1.5542   -2.4167    0.0000 C   0  0  0  0  0  0  0  0  0  0  0  0
    5.1667   -1.0875    0.0000 O   0  0  0  0  0  0  0  0  0  0  0  0
    0.8625   -1.9792    0.0000 C   0  0  0  0  0  0  0  0  0  0  0  0
    3.1500    1.3750    0.0000 O   0  0  0  0  0  0  0  0  0  0  0  0
    1.6167   -0.7667    0.0000 C   0  0  0  0  0  0  0  0  0  0  0  0
    4.6125    0.6250    0.0000 O   0  0  0  0  0  0  0  0  0  0  0  0
    0.8875   -1.1542    0.0000 C   0  0  0  0  0  0  0  0  0  0  0  0
    3.7167   -2.1375    0.0000 C   0  0  0  0  0  0  0  0  0  0  0  0
    1.5250   -3.2417    0.0000 Cl  0  0  0  0  0  0  0  0  0  0  0  0
    0.1375   -2.3625    0.0000 Cl  0  0  0  0  0  0  0  0  0  0  0  0
    4.4375   -3.3750    0.0000 O   0  0  0  0  0  0  0  0  0  0  0  0
    0.0042   -0.1542    0.0000 C   0  0  0  0  0  0  0  0  0  0  0  0
    0.0250    1.4833    0.0000 C   0  0  0  0  0  0  0  0  0  0  0  0
    4.4375   -2.5500    0.0000 C   0  0  0  0  0  0  0  0  0  0  0  0
    5.1500   -3.7875    0.0000 C   0  0  0  0  0  0  0  0  0  0  0  0
   -0.7083    0.2500    0.0000 C   0  0  0  0  0  0  0  0  0  0  0  0
   -0.6958    1.0833    0.0000 C   0  0  0  0  0  0  0  0  0  0  0  0
  2  5  1  0  0  0  0
  3  1  2  0  0  0  0
  4  3  1  0  0  0  0
  5  1  1  0  0  0  0
  6  7  1  0  0  0  0
  7  1  1  0  0  0  0
  8  6  1  0  0  0  0
  9  5  1  0  0  0  0
 10  6  2  0  0  0  0
 11  8  1  0  0  0  0
 12 10  1  0  0  0  0
 13  9  1  0  0  0  0
 14 13  2  0  0  0  0
 15  4  2  0  0  0  0
 16 20  2  0  0  0  0
 17  7  2  0  0  0  0
 18  9  2  0  0  0  0
 19  3  1  0  0  0  0
 20 18  1  0  0  0  0
 21  2  1  0  0  0  0
 22 14  1  0  0  0  0
 23 16  1  0  0  0  0
 24 27  1  0  0  0  0
 25 11  1  0  0  0  0
 26 12  1  0  0  0  0
 27 21  1  0  0  0  0
 28 24  1  0  0  0  0
 29 25  2  0  0  0  0
 30 26  2  0  0  0  0
  2  4  1  0  0  0  0
 11 12  2  0  0  0  0
 16 14  1  0  0  0  0
 30 29  1  0  0  0  0
M  END
>  <Code> (P1690388)
P1690388

>  <Number of H-Donors> (P1690388)
1

>  <Number of H-Acceptors> (P1690388)
4

>  <Number of Rotatable bonds> (P1690388)
6

>  <CLogP> (P1690388)
4.200000000000000e+000

>  <Number of Rings> (P1690388)
4

>  <PSA> (P1690388)
8.000000000000000e+001

$$$$

  -ISIS-  11102212342D

 32 36  0  0  0  0  0  0  0  0999 V2000
    3.6042   -1.2292    0.0000 N   0  0  3  0  0  0  0  0  0  0  0  0
    3.6042   -2.0542    0.0000 C   0  0  0  0  0  0  0  0  0  0  0  0
    3.1875    0.0458    0.0000 C   0  0  0  0  0  0  0  0  0  0  0  0
    4.2750   -0.7417    0.0000 C   0  0  0  0  0  0  0  0  0  0  0  0
    4.0167    0.0458    0.0000 C   0  0  0  0  0  0  0  0  0  0  0  0
    2.9375   -0.7375    0.0000 C   0  0  3  0  0  0  0  0  0  0  0  0
    4.2750   -2.5375    0.0000 S   0  0  0  0  0  0  0  0  0  0  0  0
    1.8750    0.7083    0.0000 C   0  0  0  0  0  0  0  0  0  0  0  0
    2.9250   -2.5417    0.0000 N   0  0  0  0  0  0  0  0  0  0  0  0
    2.7000    0.7083    0.0000 C   0  0  0  0  0  0  0  0  0  0  0  0
    1.3875    0.0583    0.0000 O   0  0  0  0  0  0  0  0  0  0  0  0
    3.1875   -3.3167    0.0000 N   0  0  0  0  0  0  0  0  0  0  0  0
    2.2042   -1.1250    0.0000 C   0  0  0  0  0  0  0  0  0  0  0  0
    1.3875    1.3958    0.0000 C   0  0  0  0  0  0  0  0  0  0  0  0
    4.0125   -3.3167    0.0000 C   0  0  0  0  0  0  0  0  0  0  0  0
    0.6042    0.3208    0.0000 C   0  0  0  0  0  0  0  0  0  0  0  0
    0.6125    1.1500    0.0000 C   0  0  0  0  0  0  0  0  0  0  0  0
    2.1750   -1.9500    0.0000 C   0  0  0  0  0  0  0  0  0  0  0  0
    1.4417   -2.3375    0.0000 C   0  0  0  0  0  0  0  0  0  0  0  0
    5.0542   -1.0000    0.0000 O   0  0  0  0  0  0  0  0  0  0  0  0
    0.7500   -1.9000    0.0000 C   0  0  0  0  0  0  0  0  0  0  0  0
    3.0375    1.4583    0.0000 O   0  0  0  0  0  0  0  0  0  0  0  0
    1.5042   -0.6875    0.0000 C   0  0  0  0  0  0  0  0  0  0  0  0
    4.5000    0.7083    0.0000 O   0  0  0  0  0  0  0  0  0  0  0  0
    0.7750   -1.0750    0.0000 C   0  0  0  0  0  0  0  0  0  0  0  0
    1.4125   -3.1625    0.0000 Cl  0  0  0  0  0  0  0  0  0  0  0  0
    0.0292   -2.2875    0.0000 Cl  0  0  0  0  0  0  0  0  0  0  0  0
    4.4917   -3.9875    0.0000 C   0  0  0  0  0  0  0  0  0  0  0  0
   -0.1083   -0.0792    0.0000 C   0  0  0  0  0  0  0  0  0  0  0  0
   -0.0958    1.5708    0.0000 C   0  0  0  0  0  0  0  0  0  0  0  0
   -0.8125    1.1625    0.0000 C   0  0  0  0  0  0  0  0  0  0  0  0
   -0.8208    0.3333    0.0000 C   0  0  0  0  0  0  0  0  0  0  0  0
  2  1  1  0  0  0  0
  3  6  1  0  0  0  0
  4  1  1  0  0  0  0
  5  4  1  0  0  0  0
  6  1  1  0  0  0  0
  7  2  1  0  0  0  0
  8 10  1  0  0  0  0
  9  2  2  0  0  0  0
 10  3  1  0  0  0  0
 11  8  1  0  0  0  0
 12  9  1  0  0  0  0
 13  6  1  0  0  0  0
 14  8  2  0  0  0  0
 15  7  1  0  0  0  0
 16 11  1  0  0  0  0
 17 14  1  0  0  0  0
 18 13  1  0  0  0  0
 19 18  2  0  0  0  0
 20  4  2  0  0  0  0
 21 25  2  0  0  0  0
 22 10  2  0  0  0  0
 23 13  2  0  0  0  0
 24  5  1  0  0  0  0
 25 23  1  0  0  0  0
 26 19  1  0  0  0  0
 27 21  1  0  0  0  0
 28 15  1  0  0  0  0
 29 16  1  0  0  0  0
 30 17  1  0  0  0  0
 31 30  2  0  0  0  0
 32 29  2  0  0  0  0
  5  3  2  0  0  0  0
 12 15  2  0  0  0  0
 21 19  1  0  0  0  0
 16 17  2  0  0  0  0
 31 32  1  0  0  0  0
M  END
>  <Code> (P1690174)
P1690174

>  <Number of H-Donors> (P1690174)
1

>  <Number of H-Acceptors> (P1690174)
5

>  <Number of Rotatable bonds> (P1690174)
4

>  <CLogP> (P1690174)
4.600000000000000e+000

>  <Number of Rings> (P1690174)
5

>  <PSA> (P1690174)
1.248000000000000e+002

$$$$

  -ISIS-  11102212342D

 28 31  0  0  0  0  0  0  0  0999 V2000
    2.0167   -0.1750    0.0000 C   0  0  0  0  0  0  0  0  0  0  0  0
    5.4250   -1.0125    0.0000 S   0  0  3  0  0  0  0  0  0  0  0  0
    2.5042    0.4833    0.0000 N   0  0  0  0  0  0  0  0  0  0  0  0
   -0.4458   -0.1500    0.0000 C   0  0  0  0  0  0  0  0  0  0  0  0
    2.4917   -0.8500    0.0000 S   0  0  0  0  0  0  0  0  0  0  0  0
    1.2000   -0.1667    0.0000 N   0  0  0  0  0  0  0  0  0  0  0  0
   -1.4458   -1.0417    0.0000 C   0  0  0  0  0  0  0  0  0  0  0  0
   -1.2625   -0.2375    0.0000 C   0  0  0  0  0  0  0  0  0  0  0  0
    3.2792   -0.6000    0.0000 C   0  0  0  0  0  0  0  0  0  0  0  0
   -0.7375   -1.4667    0.0000 O   0  0  0  0  0  0  0  0  0  0  0  0
   -0.1125   -0.9292    0.0000 C   0  0  0  0  0  0  0  0  0  0  0  0
   -1.8708    0.3208    0.0000 C   0  0  0  0  0  0  0  0  0  0  0  0
    3.2792    0.2333    0.0000 C   0  0  0  0  0  0  0  0  0  0  0  0
    4.7125   -0.6000    0.0000 C   0  0  0  0  0  0  0  0  0  0  0  0
    0.7875    0.5458    0.0000 C   0  0  0  0  0  0  0  0  0  0  0  0
    3.9917   -1.0167    0.0000 C   0  0  0  0  0  0  0  0  0  0  0  0
   -0.0333    0.5500    0.0000 C   0  0  0  0  0  0  0  0  0  0  0  0
    6.1417   -1.4167    0.0000 O   0  0  0  0  0  0  0  0  0  0  0  0
    5.8417   -0.3042    0.0000 O   0  0  0  0  0  0  0  0  0  0  0  0
   -2.2458   -1.2875    0.0000 C   0  0  0  0  0  0  0  0  0  0  0  0
   -2.6583    0.0833    0.0000 C   0  0  0  0  0  0  0  0  0  0  0  0
    1.2125    1.2500    0.0000 O   0  0  0  0  0  0  0  0  0  0  0  0
   -2.8375   -0.7167    0.0000 C   0  0  0  0  0  0  0  0  0  0  0  0
    4.0000    0.6458    0.0000 C   0  0  0  0  0  0  0  0  0  0  0  0
    4.7125    0.2333    0.0000 C   0  0  0  0  0  0  0  0  0  0  0  0
    5.0125   -1.7167    0.0000 C   0  0  0  0  0  0  0  0  0  0  0  0
   -1.6833    1.1250    0.0000 C   0  0  0  0  0  0  0  0  0  0  0  0
   -3.6250   -0.9542    0.0000 C   0  0  0  0  0  0  0  0  0  0  0  0
  2 14  1  0  0  0  0
  3  1  2  0  0  0  0
  4 17  1  0  0  0  0
  5  1  1  0  0  0  0
  6  1  1  0  0  0  0
  7  8  1  0  0  0  0
  8  4  1  0  0  0  0
  9  5  1  0  0  0  0
 10 11  1  0  0  0  0
 11  4  2  0  0  0  0
 12  8  2  0  0  0  0
 13  3  1  0  0  0  0
 14 16  2  0  0  0  0
 15  6  1  0  0  0  0
 16  9  1  0  0  0  0
 17 15  1  0  0  0  0
 18  2  2  0  0  0  0
 19  2  2  0  0  0  0
 20  7  2  0  0  0  0
 21 12  1  0  0  0  0
 22 15  2  0  0  0  0
 23 21  2  0  0  0  0
 24 13  1  0  0  0  0
 25 24  2  0  0  0  0
 26  2  1  0  0  0  0
 27 12  1  0  0  0  0
 28 23  1  0  0  0  0
 13  9  2  0  0  0  0
 14 25  1  0  0  0  0
  7 10  1  0  0  0  0
 20 23  1  0  0  0  0
M  END
>  <Code> (P1687827)
P1687827

>  <Number of H-Donors> (P1687827)
1

>  <Number of H-Acceptors> (P1687827)
4

>  <Number of Rotatable bonds> (P1687827)
4

>  <CLogP> (P1687827)
4.100000000000000e+000

>  <Number of Rings> (P1687827)
4

>  <PSA> (P1687827)
1.259000000000000e+002

$$$$

  -ISIS-  11102212342D

 31 35  0  0  0  0  0  0  0  0999 V2000
    1.3917    0.0333    0.0000 C   0  0  0  0  0  0  0  0  0  0  0  0
    1.8167   -1.2417    0.0000 N   0  0  3  0  0  0  0  0  0  0  0  0
    2.2250    0.0333    0.0000 C   0  0  0  0  0  0  0  0  0  0  0  0
    2.4875   -0.7542    0.0000 C   0  0  0  0  0  0  0  0  0  0  0  0
    1.1417   -0.7500    0.0000 C   0  0  3  0  0  0  0  0  0  0  0  0
    0.0875    0.6958    0.0000 C   0  0  0  0  0  0  0  0  0  0  0  0
    0.9125    0.6958    0.0000 C   0  0  0  0  0  0  0  0  0  0  0  0
   -0.3958    0.0333    0.0000 O   0  0  0  0  0  0  0  0  0  0  0  0
   -0.3958    1.3833    0.0000 C   0  0  0  0  0  0  0  0  0  0  0  0
   -1.1833    0.3000    0.0000 C   0  0  0  0  0  0  0  0  0  0  0  0
   -1.1708    1.1333    0.0000 C   0  0  0  0  0  0  0  0  0  0  0  0
    1.8167   -2.0667    0.0000 C   0  0  0  0  0  0  0  0  0  0  0  0
    3.2667   -1.0167    0.0000 O   0  0  0  0  0  0  0  0  0  0  0  0
    0.4250   -1.1667    0.0000 C   0  0  0  0  0  0  0  0  0  0  0  0
    1.2417    1.4458    0.0000 O   0  0  0  0  0  0  0  0  0  0  0  0
    2.7125    0.6958    0.0000 O   0  0  0  0  0  0  0  0  0  0  0  0
   -1.0000   -1.9917    0.0000 N   0  0  0  0  0  0  0  0  0  0  0  0
    3.9542   -3.2917    0.0000 N   0  0  0  0  0  0  0  0  0  0  0  0
    2.5375   -2.4792    0.0000 C   0  0  0  0  0  0  0  0  0  0  0  0
   -1.8958   -0.0917    0.0000 C   0  0  0  0  0  0  0  0  0  0  0  0
   -1.8833    1.5458    0.0000 C   0  0  0  0  0  0  0  0  0  0  0  0
   -1.0000   -1.1625    0.0000 C   0  0  0  0  0  0  0  0  0  0  0  0
   -0.2833   -2.4042    0.0000 C   0  0  0  0  0  0  0  0  0  0  0  0
    3.2417   -3.7042    0.0000 C   0  0  0  0  0  0  0  0  0  0  0  0
    3.9542   -2.4792    0.0000 C   0  0  0  0  0  0  0  0  0  0  0  0
   -0.2833   -0.7500    0.0000 C   0  0  0  0  0  0  0  0  0  0  0  0
    0.4292   -1.9875    0.0000 C   0  0  0  0  0  0  0  0  0  0  0  0
    3.2417   -2.0667    0.0000 C   0  0  0  0  0  0  0  0  0  0  0  0
    2.5292   -3.3042    0.0000 C   0  0  0  0  0  0  0  0  0  0  0  0
   -2.6000    0.3125    0.0000 C   0  0  0  0  0  0  0  0  0  0  0  0
   -2.5958    1.1458    0.0000 C   0  0  0  0  0  0  0  0  0  0  0  0
  2  5  1  0  0  0  0
  3  1  2  0  0  0  0
  4  3  1  0  0  0  0
  5  1  1  0  0  0  0
  6  7  1  0  0  0  0
  7  1  1  0  0  0  0
  8  6  1  0  0  0  0
  9  6  2  0  0  0  0
 10  8  1  0  0  0  0
 11  9  1  0  0  0  0
 12  2  1  0  0  0  0
 13  4  2  0  0  0  0
 14  5  1  0  0  0  0
 15  7  2  0  0  0  0
 16  3  1  0  0  0  0
 17 23  1  0  0  0  0
 18 24  1  0  0  0  0
 19 12  1  0  0  0  0
 20 10  1  0  0  0  0
 21 11  1  0  0  0  0
 22 26  1  0  0  0  0
 23 27  2  0  0  0  0
 24 29  2  0  0  0  0
 25 28  1  0  0  0  0
 26 14  2  0  0  0  0
 27 14  1  0  0  0  0
 28 19  2  0  0  0  0
 29 19  1  0  0  0  0
 30 20  2  0  0  0  0
 31 21  2  0  0  0  0
  2  4  1  0  0  0  0
 10 11  2  0  0  0  0
 22 17  2  0  0  0  0
 31 30  1  0  0  0  0
 18 25  2  0  0  0  0
M  END
>  <Code> (P1685109)
P1685109

>  <Number of H-Donors> (P1685109)
1

>  <Number of H-Acceptors> (P1685109)
5

>  <Number of Rotatable bonds> (P1685109)
5

>  <CLogP> (P1685109)
2.300000000000000e+000

>  <Number of Rings> (P1685109)
5

>  <PSA> (P1685109)
9.650000000000000e+001

$$$$

  -ISIS-  11102212342D

 31 35  0  0  0  0  0  0  0  0999 V2000
    5.7667   -4.7042    0.0000 C   0  0  0  0  0  0  0  0  0  0  0  0
    6.1917   -5.9792    0.0000 N   0  0  3  0  0  0  0  0  0  0  0  0
    6.6042   -4.6917    0.0000 C   0  0  0  0  0  0  0  0  0  0  0  0
    6.8625   -5.4917    0.0000 C   0  0  0  0  0  0  0  0  0  0  0  0
    5.5167   -5.4917    0.0000 C   0  0  3  0  0  0  0  0  0  0  0  0
    4.4667   -4.0292    0.0000 C   0  0  0  0  0  0  0  0  0  0  0  0
    5.2917   -4.0417    0.0000 C   0  0  0  0  0  0  0  0  0  0  0  0
    3.9792   -4.6917    0.0000 O   0  0  0  0  0  0  0  0  0  0  0  0
    3.9792   -3.3542    0.0000 C   0  0  0  0  0  0  0  0  0  0  0  0
    4.7417   -5.8125    0.0000 C   0  0  0  0  0  0  0  0  0  0  0  0
    6.1917   -6.8042    0.0000 C   0  0  0  0  0  0  0  0  0  0  0  0
    3.1917   -4.4292    0.0000 C   0  0  0  0  0  0  0  0  0  0  0  0
    3.2042   -3.6042    0.0000 C   0  0  0  0  0  0  0  0  0  0  0  0
    4.5417   -6.6292    0.0000 S   0  0  0  0  0  0  0  0  0  0  0  0
    7.6417   -5.7542    0.0000 O   0  0  0  0  0  0  0  0  0  0  0  0
    5.6167   -3.2917    0.0000 O   0  0  0  0  0  0  0  0  0  0  0  0
    4.0167   -5.3667    0.0000 C   0  0  0  0  0  0  0  0  0  0  0  0
    3.7042   -6.6875    0.0000 C   0  0  0  0  0  0  0  0  0  0  0  0
    7.0917   -4.0292    0.0000 O   0  0  0  0  0  0  0  0  0  0  0  0
    3.3792   -5.9042    0.0000 C   0  0  0  0  0  0  0  0  0  0  0  0
    6.9125   -7.2167    0.0000 C   0  0  0  0  0  0  0  0  0  0  0  0
    6.9125   -8.0417    0.0000 C   0  0  0  0  0  0  0  0  0  0  0  0
    2.4875   -4.8292    0.0000 C   0  0  0  0  0  0  0  0  0  0  0  0
    2.5000   -3.1792    0.0000 C   0  0  0  0  0  0  0  0  0  0  0  0
    6.1917   -8.4417    0.0000 C   0  0  0  0  0  0  0  0  0  0  0  0
    7.6250   -8.4375    0.0000 C   0  0  0  0  0  0  0  0  0  0  0  0
    1.7750   -4.4167    0.0000 C   0  0  0  0  0  0  0  0  0  0  0  0
    1.7792   -3.5917    0.0000 C   0  0  0  0  0  0  0  0  0  0  0  0
    7.6292   -9.2625    0.0000 C   0  0  0  0  0  0  0  0  0  0  0  0
    6.1917   -9.2667    0.0000 C   0  0  0  0  0  0  0  0  0  0  0  0
    6.9125   -9.6792    0.0000 C   0  0  0  0  0  0  0  0  0  0  0  0
  2  5  1  0  0  0  0
  3  1  2  0  0  0  0
  4  3  1  0  0  0  0
  5  1  1  0  0  0  0
  6  7  1  0  0  0  0
  7  1  1  0  0  0  0
  8  6  1  0  0  0  0
  9  6  2  0  0  0  0
 10  5  1  0  0  0  0
 11  2  1  0  0  0  0
 12  8  1  0  0  0  0
 13  9  1  0  0  0  0
 14 10  1  0  0  0  0
 15  4  2  0  0  0  0
 16  7  2  0  0  0  0
 17 10  2  0  0  0  0
 18 14  1  0  0  0  0
 19  3  1  0  0  0  0
 20 17  1  0  0  0  0
 21 11  1  0  0  0  0
 22 21  1  0  0  0  0
 23 12  1  0  0  0  0
 24 13  1  0  0  0  0
 25 22  2  0  0  0  0
 26 22  1  0  0  0  0
 27 23  2  0  0  0  0
 28 24  2  0  0  0  0
 29 26  2  0  0  0  0
 30 25  1  0  0  0  0
 31 29  1  0  0  0  0
  2  4  1  0  0  0  0
 12 13  2  0  0  0  0
 20 18  2  0  0  0  0
 28 27  1  0  0  0  0
 30 31  2  0  0  0  0
M  END
>  <Code> (P1685099)
P1685099

>  <Number of H-Donors> (P1685099)
1

>  <Number of H-Acceptors> (P1685099)
3

>  <Number of Rotatable bonds> (P1685099)
6

>  <CLogP> (P1685099)
4.700000000000000e+000

>  <Number of Rings> (P1685099)
5

>  <PSA> (P1685099)
9.900000000000000e+001

$$$$

  -ISIS-  11102212342D

 31 34  0  0  0  0  0  0  0  0999 V2000
    2.6000   -0.8542    0.0000 C   0  0  0  0  0  0  0  0  0  0  0  0
    1.9292   -0.3667    0.0000 C   0  0  0  0  0  0  0  0  0  0  0  0
    3.2667   -0.3792    0.0000 O   0  0  0  0  0  0  0  0  0  0  0  0
    2.1792    0.4083    0.0000 C   0  0  0  0  0  0  0  0  0  0  0  0
    2.5917   -1.6792    0.0000 C   0  0  0  0  0  0  0  0  0  0  0  0
    3.0167    0.4083    0.0000 C   0  0  0  0  0  0  0  0  0  0  0  0
    1.1417   -0.6292    0.0000 N   0  0  0  0  0  0  0  0  0  0  0  0
    0.4292   -1.0417    0.0000 C   0  0  0  0  0  0  0  0  0  0  0  0
    3.3042   -2.1000    0.0000 C   0  0  0  0  0  0  0  0  0  0  0  0
    1.8792   -2.0917    0.0000 O   0  0  0  0  0  0  0  0  0  0  0  0
   -1.0000   -1.0417    0.0000 O   0  0  0  0  0  0  0  0  0  0  0  0
   -1.7125   -0.6292    0.0000 C   0  0  0  0  0  0  0  0  0  0  0  0
    0.4292   -1.8667    0.0000 O   0  0  0  0  0  0  0  0  0  0  0  0
   -2.4208   -1.0500    0.0000 C   0  0  0  0  0  0  0  0  0  0  0  0
    4.0167   -1.6917    0.0000 C   0  0  0  0  0  0  0  0  0  0  0  0
    3.3000   -2.9250    0.0000 C   0  0  0  0  0  0  0  0  0  0  0  0
   -0.2833   -0.6292    0.0000 C   0  0  0  0  0  0  0  0  0  0  0  0
    4.0042   -3.3417    0.0000 C   0  0  0  0  0  0  0  0  0  0  0  0
    4.7292   -2.1042    0.0000 C   0  0  0  0  0  0  0  0  0  0  0  0
    4.7292   -2.9292    0.0000 C   0  0  0  0  0  0  0  0  0  0  0  0
    1.7667    1.1208    0.0000 C   0  0  0  0  0  0  0  0  0  0  0  0
   -2.4208   -1.8750    0.0000 O   0  0  0  0  0  0  0  0  0  0  0  0
    3.4292    1.1250    0.0000 C   0  0  0  0  0  0  0  0  0  0  0  0
   -1.7083    0.1958    0.0000 C   0  0  0  0  0  0  0  0  0  0  0  0
   -3.1375   -0.6375    0.0000 C   0  0  0  0  0  0  0  0  0  0  0  0
    5.4417   -3.3417    0.0000 C   0  0  0  0  0  0  0  0  0  0  0  0
   -3.1333   -2.2875    0.0000 C   0  0  0  0  0  0  0  0  0  0  0  0
    2.1750    1.8458    0.0000 C   0  0  0  0  0  0  0  0  0  0  0  0
    3.0125    1.8500    0.0000 C   0  0  0  0  0  0  0  0  0  0  0  0
   -3.1375    0.1958    0.0000 C   0  0  0  0  0  0  0  0  0  0  0  0
   -2.4208    0.6083    0.0000 C   0  0  0  0  0  0  0  0  0  0  0  0
  2  1  2  0  0  0  0
  3  1  1  0  0  0  0
  4  2  1  0  0  0  0
  5  1  1  0  0  0  0
  6  3  1  0  0  0  0
  7  2  1  0  0  0  0
  8  7  1  0  0  0  0
  9  5  1  0  0  0  0
 10  5  2  0  0  0  0
 11 17  1  0  0  0  0
 12 11  1  0  0  0  0
 13  8  2  0  0  0  0
 14 12  1  0  0  0  0
 15  9  1  0  0  0  0
 16  9  2  0  0  0  0
 17  8  1  0  0  0  0
 18 16  1  0  0  0  0
 19 15  2  0  0  0  0
 20 18  2  0  0  0  0
 21  4  1  0  0  0  0
 22 14  1  0  0  0  0
 23  6  1  0  0  0  0
 24 12  2  0  0  0  0
 25 14  2  0  0  0  0
 26 20  1  0  0  0  0
 27 22  1  0  0  0  0
 28 21  2  0  0  0  0
 29 23  2  0  0  0  0
 30 31  2  0  0  0  0
 31 24  1  0  0  0  0
  4  6  2  0  0  0  0
 29 28  1  0  0  0  0
 19 20  1  0  0  0  0
 25 30  1  0  0  0  0
M  END
>  <Code> (P1683778)
P1683778

>  <Number of H-Donors> (P1683778)
1

>  <Number of H-Acceptors> (P1683778)
4

>  <Number of Rotatable bonds> (P1683778)
7

>  <CLogP> (P1683778)
4.900000000000000e+000

>  <Number of Rings> (P1683778)
4

>  <PSA> (P1683778)
7.780000000000000e+001

$$$$

  -ISIS-  11102212342D

 30 33  0  0  0  0  0  0  0  0999 V2000
    1.7625   -3.7292    0.0000 C   0  0  0  0  0  0  0  0  0  0  0  0
    2.1042   -2.9792    0.0000 C   0  0  0  0  0  0  0  0  0  0  0  0
    2.3542   -4.2875    0.0000 O   0  0  0  0  0  0  0  0  0  0  0  0
    2.9042   -3.0667    0.0000 C   0  0  0  0  0  0  0  0  0  0  0  0
    0.9417   -3.8792    0.0000 C   0  0  0  0  0  0  0  0  0  0  0  0
    3.0667   -3.8917    0.0000 C   0  0  0  0  0  0  0  0  0  0  0  0
    1.7000   -2.2542    0.0000 N   0  0  0  0  0  0  0  0  0  0  0  0
    2.1167   -1.5542    0.0000 C   0  0  0  0  0  0  0  0  0  0  0  0
    0.6042   -4.6292    0.0000 O   0  0  0  0  0  0  0  0  0  0  0  0
    0.8917   -0.8250    0.0000 O   0  0  0  0  0  0  0  0  0  0  0  0
    0.4417   -3.2167    0.0000 C   0  0  0  0  0  0  0  0  0  0  0  0
    0.4875   -0.1125    0.0000 C   0  0  0  0  0  0  0  0  0  0  0  0
    2.9417   -1.5625    0.0000 O   0  0  0  0  0  0  0  0  0  0  0  0
    0.9125    0.5958    0.0000 C   0  0  0  0  0  0  0  0  0  0  0  0
    1.7167   -0.8375    0.0000 C   0  0  0  0  0  0  0  0  0  0  0  0
    3.5292   -2.5167    0.0000 C   0  0  0  0  0  0  0  0  0  0  0  0
    1.7375    0.5833    0.0000 O   0  0  0  0  0  0  0  0  0  0  0  0
    3.8542   -4.1542    0.0000 C   0  0  0  0  0  0  0  0  0  0  0  0
   -0.3708   -3.3292    0.0000 C   0  0  0  0  0  0  0  0  0  0  0  0
   -0.3333   -0.1042    0.0000 C   0  0  0  0  0  0  0  0  0  0  0  0
    0.7625   -2.4667    0.0000 C   0  0  0  0  0  0  0  0  0  0  0  0
    0.5042    1.3125    0.0000 C   0  0  0  0  0  0  0  0  0  0  0  0
    2.1542    1.2958    0.0000 C   0  0  0  0  0  0  0  0  0  0  0  0
    4.3125   -2.7792    0.0000 C   0  0  0  0  0  0  0  0  0  0  0  0
    4.4792   -3.6042    0.0000 C   0  0  0  0  0  0  0  0  0  0  0  0
   -0.7333    0.6083    0.0000 C   0  0  0  0  0  0  0  0  0  0  0  0
    0.2625   -1.8125    0.0000 C   0  0  0  0  0  0  0  0  0  0  0  0
   -0.8708   -2.6792    0.0000 C   0  0  0  0  0  0  0  0  0  0  0  0
   -0.3125    1.3208    0.0000 C   0  0  0  0  0  0  0  0  0  0  0  0
   -0.5500   -1.9167    0.0000 C   0  0  0  0  0  0  0  0  0  0  0  0
  2  1  2  0  0  0  0
  3  1  1  0  0  0  0
  4  2  1  0  0  0  0
  5  1  1  0  0  0  0
  6  3  1  0  0  0  0
  7  2  1  0  0  0  0
  8  7  1  0  0  0  0
  9  5  2  0  0  0  0
 10 15  1  0  0  0  0
 11  5  1  0  0  0  0
 12 10  1  0  0  0  0
 13  8  2  0  0  0  0
 14 12  2  0  0  0  0
 15  8  1  0  0  0  0
 16  4  1  0  0  0  0
 17 14  1  0  0  0  0
 18  6  1  0  0  0  0
 19 11  1  0  0  0  0
 20 12  1  0  0  0  0
 21 11  2  0  0  0  0
 22 14  1  0  0  0  0
 23 17  1  0  0  0  0
 24 16  2  0  0  0  0
 25 18  2  0  0  0  0
 26 20  2  0  0  0  0
 27 21  1  0  0  0  0
 28 19  2  0  0  0  0
 29 26  1  0  0  0  0
 30 27  2  0  0  0  0
  4  6  2  0  0  0  0
 25 24  1  0  0  0  0
 30 28  1  0  0  0  0
 22 29  2  0  0  0  0
M  END
>  <Code> (P1683381)
P1683381

>  <Number of H-Donors> (P1683381)
1

>  <Number of H-Acceptors> (P1683381)
4

>  <Number of Rotatable bonds> (P1683381)
7

>  <CLogP> (P1683381)
4.400000000000000e+000

>  <Number of Rings> (P1683381)
4

>  <PSA> (P1683381)
7.780000000000000e+001

$$$$

  -ISIS-  11102212342D

 33 36  0  0  0  0  0  0  0  0999 V2000
    1.9042    1.0708    0.0000 C   0  0  0  0  0  0  0  0  0  0  0  0
    2.3292   -0.2000    0.0000 N   0  0  3  0  0  0  0  0  0  0  0  0
    2.7292    1.0708    0.0000 C   0  0  0  0  0  0  0  0  0  0  0  0
    2.9917    0.2833    0.0000 C   0  0  0  0  0  0  0  0  0  0  0  0
    1.6542    0.2875    0.0000 C   0  0  3  0  0  0  0  0  0  0  0  0
    1.4250    1.7333    0.0000 C   0  0  0  0  0  0  0  0  0  0  0  0
    0.9292   -0.0917    0.0000 C   0  0  0  0  0  0  0  0  0  0  0  0
    0.6000    1.6875    0.0000 C   0  0  0  0  0  0  0  0  0  0  0  0
    2.3292   -1.0167    0.0000 C   0  0  0  0  0  0  0  0  0  0  0  0
    0.9042   -0.9167    0.0000 C   0  0  0  0  0  0  0  0  0  0  0  0
    0.1500    1.0000    0.0000 S   0  0  0  0  0  0  0  0  0  0  0  0
    3.0417   -1.4375    0.0000 C   0  0  0  0  0  0  0  0  0  0  0  0
    0.1792   -1.3125    0.0000 C   0  0  0  0  0  0  0  0  0  0  0  0
    3.7750    0.0250    0.0000 O   0  0  0  0  0  0  0  0  0  0  0  0
    3.1167   -2.2542    0.0000 O   0  0  0  0  0  0  0  0  0  0  0  0
    0.2292    0.3375    0.0000 C   0  0  0  0  0  0  0  0  0  0  0  0
    1.7625    2.4958    0.0000 O   0  0  0  0  0  0  0  0  0  0  0  0
   -0.5208   -0.8667    0.0000 C   0  0  0  0  0  0  0  0  0  0  0  0
    0.0667    2.3500    0.0000 C   0  0  0  0  0  0  0  0  0  0  0  0
   -0.6500    1.2208    0.0000 C   0  0  0  0  0  0  0  0  0  0  0  0
    3.2250    1.7458    0.0000 O   0  0  0  0  0  0  0  0  0  0  0  0
    3.7917   -1.1042    0.0000 C   0  0  0  0  0  0  0  0  0  0  0  0
    3.9250   -2.4292    0.0000 C   0  0  0  0  0  0  0  0  0  0  0  0
   -0.6958    2.0458    0.0000 C   0  0  0  0  0  0  0  0  0  0  0  0
    4.3417   -1.7042    0.0000 C   0  0  0  0  0  0  0  0  0  0  0  0
   -0.4958   -0.0417    0.0000 C   0  0  0  0  0  0  0  0  0  0  0  0
    0.1500   -2.1292    0.0000 O   0  0  0  0  0  0  0  0  0  0  0  0
   -1.2458   -1.2542    0.0000 O   0  0  0  0  0  0  0  0  0  0  0  0
   -0.5833   -2.5167    0.0000 C   0  0  0  0  0  0  0  0  0  0  0  0
   -1.9458   -0.8167    0.0000 C   0  0  0  0  0  0  0  0  0  0  0  0
   -2.6708   -1.2042    0.0000 C   0  0  0  0  0  0  0  0  0  0  0  0
   -0.6083   -3.3417    0.0000 C   0  0  0  0  0  0  0  0  0  0  0  0
   -3.3750   -0.7750    0.0000 C   0  0  0  0  0  0  0  0  0  0  0  0
  2  5  1  0  0  0  0
  3  1  2  0  0  0  0
  4  3  1  0  0  0  0
  5  1  1  0  0  0  0
  6  1  1  0  0  0  0
  7  5  1  0  0  0  0
  8  6  1  0  0  0  0
  9  2  1  0  0  0  0
 10  7  1  0  0  0  0
 11  8  1  0  0  0  0
 12  9  1  0  0  0  0
 13 10  2  0  0  0  0
 14  4  2  0  0  0  0
 15 12  1  0  0  0  0
 16  7  2  0  0  0  0
 17  6  2  0  0  0  0
 18 26  2  0  0  0  0
 19  8  2  0  0  0  0
 20 11  1  0  0  0  0
 21  3  1  0  0  0  0
 22 12  2  0  0  0  0
 23 15  1  0  0  0  0
 24 19  1  0  0  0  0
 25 22  1  0  0  0  0
 26 16  1  0  0  0  0
 27 13  1  0  0  0  0
 28 18  1  0  0  0  0
 29 27  1  0  0  0  0
 30 28  1  0  0  0  0
 31 30  1  0  0  0  0
 32 29  1  0  0  0  0
 33 31  1  0  0  0  0
  2  4  1  0  0  0  0
 24 20  2  0  0  0  0
 18 13  1  0  0  0  0
 23 25  2  0  0  0  0
M  END
>  <Code> (P1680524)
P1680524

>  <Number of H-Donors> (P1680524)
1

>  <Number of H-Acceptors> (P1680524)
5

>  <Number of Rotatable bonds> (P1680524)
10

>  <CLogP> (P1680524)
4.300000000000000e+000

>  <Number of Rings> (P1680524)
4

>  <PSA> (P1680524)
1.175000000000000e+002

$$$$

  -ISIS-  11102212342D

 33 37  0  0  0  0  0  0  0  0999 V2000
    0.6292    1.3708    0.0000 C   0  0  0  0  0  0  0  0  0  0  0  0
    1.0417    0.1000    0.0000 N   0  0  3  0  0  0  0  0  0  0  0  0
    1.4542    1.3833    0.0000 C   0  0  0  0  0  0  0  0  0  0  0  0
    1.7042    0.5833    0.0000 C   0  0  0  0  0  0  0  0  0  0  0  0
    0.3750    0.5833    0.0000 C   0  0  3  0  0  0  0  0  0  0  0  0
    0.1417    2.0333    0.0000 C   0  0  0  0  0  0  0  0  0  0  0  0
   -0.3500    0.2000    0.0000 C   0  0  0  0  0  0  0  0  0  0  0  0
   -0.6833    1.9875    0.0000 C   0  0  0  0  0  0  0  0  0  0  0  0
    1.0417   -0.7250    0.0000 C   0  0  0  0  0  0  0  0  0  0  0  0
   -1.9583    2.6458    0.0000 C   0  0  0  0  0  0  0  0  0  0  0  0
   -1.1375    2.6875    0.0000 C   0  0  0  0  0  0  0  0  0  0  0  0
    2.4875    0.3333    0.0000 O   0  0  0  0  0  0  0  0  0  0  0  0
   -2.3375    1.9083    0.0000 C   0  0  0  0  0  0  0  0  0  0  0  0
   -0.3833   -0.6125    0.0000 C   0  0  0  0  0  0  0  0  0  0  0  0
    0.4792    2.7875    0.0000 O   0  0  0  0  0  0  0  0  0  0  0  0
   -2.4125    3.3458    0.0000 O   0  0  0  0  0  0  0  0  0  0  0  0
   -1.0583    1.2625    0.0000 C   0  0  0  0  0  0  0  0  0  0  0  0
   -3.1708    1.8625    0.0000 O   0  0  0  0  0  0  0  0  0  0  0  0
    1.9375    2.0375    0.0000 O   0  0  0  0  0  0  0  0  0  0  0  0
    3.1875   -1.1375    0.0000 N   0  0  0  0  0  0  0  0  0  0  0  0
    1.7542   -1.1375    0.0000 C   0  0  0  0  0  0  0  0  0  0  0  0
   -1.8875    1.2083    0.0000 C   0  0  0  0  0  0  0  0  0  0  0  0
   -1.1083   -1.0042    0.0000 C   0  0  0  0  0  0  0  0  0  0  0  0
   -1.0500    0.6375    0.0000 C   0  0  0  0  0  0  0  0  0  0  0  0
    2.4667   -0.7292    0.0000 C   0  0  0  0  0  0  0  0  0  0  0  0
   -1.1333   -1.8292    0.0000 O   0  0  0  0  0  0  0  0  0  0  0  0
   -1.7875    0.2583    0.0000 C   0  0  0  0  0  0  0  0  0  0  0  0
    3.1875   -1.9667    0.0000 C   0  0  0  0  0  0  0  0  0  0  0  0
   -3.2375    3.3083    0.0000 C   0  0  0  0  0  0  0  0  0  0  0  0
   -3.6208    2.5708    0.0000 C   0  0  0  0  0  0  0  0  0  0  0  0
    1.7625   -1.9667    0.0000 C   0  0  0  0  0  0  0  0  0  0  0  0
   -1.8083   -0.5667    0.0000 C   0  0  0  0  0  0  0  0  0  0  0  0
    2.4750   -2.3667    0.0000 C   0  0  0  0  0  0  0  0  0  0  0  0
  2  5  1  0  0  0  0
  3  1  2  0  0  0  0
  4  3  1  0  0  0  0
  5  1  1  0  0  0  0
  6  1  1  0  0  0  0
  7  5  1  0  0  0  0
  8  6  1  0  0  0  0
  9  2  1  0  0  0  0
 10 11  1  0  0  0  0
 11  8  2  0  0  0  0
 12  4  2  0  0  0  0
 13 22  1  0  0  0  0
 14  7  1  0  0  0  0
 15  6  2  0  0  0  0
 16 10  1  0  0  0  0
 17  8  1  0  0  0  0
 18 13  1  0  0  0  0
 19  3  1  0  0  0  0
 20 25  1  0  0  0  0
 21  9  1  0  0  0  0
 22 17  2  0  0  0  0
 23 14  2  0  0  0  0
 24  7  2  0  0  0  0
 25 21  2  0  0  0  0
 26 23  1  0  0  0  0
 27 24  1  0  0  0  0
 28 33  1  0  0  0  0
 29 16  1  0  0  0  0
 30 18  1  0  0  0  0
 31 21  1  0  0  0  0
 32 27  2  0  0  0  0
 33 31  2  0  0  0  0
  2  4  1  0  0  0  0
 13 10  2  0  0  0  0
 32 23  1  0  0  0  0
 29 30  1  0  0  0  0
 20 28  2  0  0  0  0
M  END
>  <Code> (P1680507)
P1680507

>  <Number of H-Donors> (P1680507)
2

>  <Number of H-Acceptors> (P1680507)
7

>  <Number of Rotatable bonds> (P1680507)
5

>  <CLogP> (P1680507)
2.400000000000000e+000

>  <Number of Rings> (P1680507)
5

>  <PSA> (P1680507)
1.092000000000000e+002

$$$$

  -ISIS-  11102212342D

 28 31  0  0  0  0  0  0  0  0999 V2000
    2.0792   -0.4375    0.0000 C   0  0  0  0  0  0  0  0  0  0  0  0
    2.7917   -0.8417    0.0000 C   0  0  0  0  0  0  0  0  0  0  0  0
    0.7750   -2.3792    0.0000 S   0  0  3  0  0  0  0  0  0  0  0  0
    1.3292   -0.7750    0.0000 S   0  0  0  0  0  0  0  0  0  0  0  0
    1.9917    0.3875    0.0000 C   0  0  0  0  0  0  0  0  0  0  0  0
    2.7917   -1.6750    0.0000 N   0  0  3  0  0  0  0  0  0  0  0  0
    1.1917    0.5500    0.0000 C   0  0  0  0  0  0  0  0  0  0  0  0
    1.3250   -1.7625    0.0000 C   0  0  0  0  0  0  0  0  0  0  0  0
    0.7875   -0.1542    0.0000 C   0  0  0  0  0  0  0  0  0  0  0  0
    2.0792   -2.0917    0.0000 C   0  0  3  0  0  0  0  0  0  0  0  0
    0.0917   -2.8417    0.0000 O   0  0  0  0  0  0  0  0  0  0  0  0
    0.3042   -1.7042    0.0000 O   0  0  0  0  0  0  0  0  0  0  0  0
    3.5167   -2.0917    0.0000 C   0  0  0  0  0  0  0  0  0  0  0  0
    2.0042   -2.9250    0.0000 C   0  0  0  0  0  0  0  0  0  0  0  0
    3.5167   -0.4292    0.0000 O   0  0  0  0  0  0  0  0  0  0  0  0
    1.1917   -3.1000    0.0000 C   0  0  0  0  0  0  0  0  0  0  0  0
    2.6042    0.9458    0.0000 Cl  0  0  0  0  0  0  0  0  0  0  0  0
    4.2292   -1.6750    0.0000 C   0  0  0  0  0  0  0  0  0  0  0  0
    4.9542   -2.0917    0.0000 C   0  0  0  0  0  0  0  0  0  0  0  0
    5.6667   -1.6750    0.0000 C   0  0  0  0  0  0  0  0  0  0  0  0
    6.3792   -2.0792    0.0000 Cl  0  0  0  0  0  0  0  0  0  0  0  0
    0.7875    1.2625    0.0000 C   0  0  0  0  0  0  0  0  0  0  0  0
   -0.0333   -0.1542    0.0000 C   0  0  0  0  0  0  0  0  0  0  0  0
    4.9417   -0.4292    0.0000 C   0  0  0  0  0  0  0  0  0  0  0  0
    4.2292   -0.8417    0.0000 C   0  0  0  0  0  0  0  0  0  0  0  0
    5.6667   -0.8417    0.0000 C   0  0  0  0  0  0  0  0  0  0  0  0
   -0.0333    1.2625    0.0000 C   0  0  0  0  0  0  0  0  0  0  0  0
   -0.4458    0.5500    0.0000 C   0  0  0  0  0  0  0  0  0  0  0  0
  2  1  1  0  0  0  0
  3  8  1  0  0  0  0
  4  1  1  0  0  0  0
  5  1  2  0  0  0  0
  6  2  1  0  0  0  0
  7  5  1  0  0  0  0
  8 10  1  0  0  0  0
  9  4  1  0  0  0  0
 10  6  1  0  0  0  0
 11  3  2  0  0  0  0
 12  3  2  0  0  0  0
 13  6  1  0  0  0  0
 14 10  1  0  0  0  0
 15  2  2  0  0  0  0
 16 14  1  0  0  0  0
 17  5  1  0  0  0  0
 18 13  1  0  0  0  0
 19 18  2  0  0  0  0
 20 19  1  0  0  0  0
 21 20  1  0  0  0  0
 22  7  1  0  0  0  0
 23  9  1  0  0  0  0
 24 25  2  0  0  0  0
 25 18  1  0  0  0  0
 26 24  1  0  0  0  0
 27 22  2  0  0  0  0
 28 23  2  0  0  0  0
  9  7  2  0  0  0  0
 27 28  1  0  0  0  0
  3 16  1  0  0  0  0
 20 26  2  0  0  0  0
M  END
>  <Code> (P1680222)
P1680222

>  <Number of H-Donors> (P1680222)
0

>  <Number of H-Acceptors> (P1680222)
3

>  <Number of Rotatable bonds> (P1680222)
4

>  <CLogP> (P1680222)
4.800000000000000e+000

>  <Number of Rings> (P1680222)
4

>  <PSA> (P1680222)
9.110000000000001e+001

$$$$

  -ISIS-  11102212342D

 30 32  0  0  0  0  0  0  0  0999 V2000
    4.0625   -1.4917    0.0000 N   0  0  3  0  0  0  0  0  0  0  0  0
    4.0625   -2.3167    0.0000 C   0  0  0  0  0  0  0  0  0  0  0  0
    5.4875   -1.4917    0.0000 C   0  0  0  0  0  0  0  0  0  0  0  0
    4.7750   -1.0792    0.0000 C   0  0  3  0  0  0  0  0  0  0  0  0
    4.7750   -2.7292    0.0000 N   0  0  0  0  0  0  0  0  0  0  0  0
    3.2667   -1.2375    0.0000 C   0  0  0  0  0  0  0  0  0  0  0  0
    5.4875   -2.3167    0.0000 C   0  0  0  0  0  0  0  0  0  0  0  0
    3.2667   -2.5792    0.0000 S   0  0  0  0  0  0  0  0  0  0  0  0
    4.7750   -0.2542    0.0000 C   0  0  0  0  0  0  0  0  0  0  0  0
    2.7917   -1.9042    0.0000 C   0  0  3  0  0  0  0  0  0  0  0  0
    6.2042   -1.0792    0.0000 C   0  0  0  0  0  0  0  0  0  0  0  0
    4.0625    0.1625    0.0000 C   0  0  0  0  0  0  0  0  0  0  0  0
    4.0625    0.9875    0.0000 C   0  0  0  0  0  0  0  0  0  0  0  0
    3.0167   -0.4542    0.0000 O   0  0  0  0  0  0  0  0  0  0  0  0
    5.4875    0.1625    0.0000 C   0  0  0  0  0  0  0  0  0  0  0  0
    4.7750    1.4000    0.0000 C   0  0  0  0  0  0  0  0  0  0  0  0
    6.2125   -0.2542    0.0000 O   0  0  0  0  0  0  0  0  0  0  0  0
    5.4875    0.9875    0.0000 C   0  0  0  0  0  0  0  0  0  0  0  0
    6.9167   -1.5000    0.0000 O   0  0  0  0  0  0  0  0  0  0  0  0
    6.2042   -2.7292    0.0000 C   0  0  0  0  0  0  0  0  0  0  0  0
    3.3417    1.3958    0.0000 O   0  0  0  0  0  0  0  0  0  0  0  0
    4.7750    2.2333    0.0000 O   0  0  0  0  0  0  0  0  0  0  0  0
    1.9625   -1.9042    0.0000 C   0  0  0  0  0  0  0  0  0  0  0  0
    3.3292    2.2208    0.0000 C   0  0  0  0  0  0  0  0  0  0  0  0
    5.4875    2.6458    0.0000 C   0  0  0  0  0  0  0  0  0  0  0  0
    7.6375   -1.0875    0.0000 C   0  0  0  0  0  0  0  0  0  0  0  0
    5.4875    3.4708    0.0000 C   0  0  0  0  0  0  0  0  0  0  0  0
    1.5500   -1.1917    0.0000 C   0  0  0  0  0  0  0  0  0  0  0  0
    2.6167    2.6333    0.0000 C   0  0  0  0  0  0  0  0  0  0  0  0
    6.2042    3.8833    0.0000 C   0  0  0  0  0  0  0  0  0  0  0  0
  2  1  1  0  0  0  0
  3  4  1  0  0  0  0
  4  1  1  0  0  0  0
  5  2  2  0  0  0  0
  6  1  1  0  0  0  0
  7  3  2  0  0  0  0
  8  2  1  0  0  0  0
  9  4  1  0  0  0  0
 10  6  1  0  0  0  0
 11  3  1  0  0  0  0
 12  9  1  0  0  0  0
 13 12  2  0  0  0  0
 14  6  2  0  0  0  0
 15  9  2  0  0  0  0
 16 18  2  0  0  0  0
 17 11  2  0  0  0  0
 18 15  1  0  0  0  0
 19 11  1  0  0  0  0
 20  7  1  0  0  0  0
 21 13  1  0  0  0  0
 22 16  1  0  0  0  0
 23 10  1  0  0  0  0
 24 21  1  0  0  0  0
 25 22  1  0  0  0  0
 26 19  1  0  0  0  0
 27 25  1  0  0  0  0
 28 23  1  0  0  0  0
 29 24  1  0  0  0  0
 30 27  1  0  0  0  0
 10  8  1  0  0  0  0
  5  7  1  0  0  0  0
 16 13  1  0  0  0  0
M  END
>  <Code> (P1679114)
P1679114

>  <Number of H-Donors> (P1679114)
0

>  <Number of H-Acceptors> (P1679114)
7

>  <Number of Rotatable bonds> (P1679114)
9

>  <CLogP> (P1679114)
4.400000000000000e+000

>  <Number of Rings> (P1679114)
3

>  <PSA> (P1679114)
1.027000000000000e+002

$$$$

  -ISIS-  11102212342D

 36 40  0  0  0  0  0  0  0  0999 V2000
    3.0167   -0.7542    0.0000 C   0  0  0  0  0  0  0  0  0  0  0  0
    3.3667   -2.0500    0.0000 N   0  0  3  0  0  0  0  0  0  0  0  0
    3.8500   -0.8000    0.0000 C   0  0  0  0  0  0  0  0  0  0  0  0
    4.0625   -1.6000    0.0000 C   0  0  0  0  0  0  0  0  0  0  0  0
    2.7292   -1.5250    0.0000 C   0  0  3  0  0  0  0  0  0  0  0  0
    1.7542   -0.0542    0.0000 C   0  0  0  0  0  0  0  0  0  0  0  0
    2.5792   -0.0625    0.0000 C   0  0  0  0  0  0  0  0  0  0  0  0
    1.2625   -0.7125    0.0000 O   0  0  0  0  0  0  0  0  0  0  0  0
    2.0042   -1.9167    0.0000 C   0  0  0  0  0  0  0  0  0  0  0  0
    1.2667    0.6375    0.0000 C   0  0  0  0  0  0  0  0  0  0  0  0
    6.2875   -4.4542    0.0000 N   0  0  0  0  0  0  0  0  0  0  0  0
    0.4667   -0.4375    0.0000 C   0  0  0  0  0  0  0  0  0  0  0  0
    5.4417   -3.4125    0.0000 N   0  0  3  0  0  0  0  0  0  0  0  0
    0.4792    0.3833    0.0000 C   0  0  0  0  0  0  0  0  0  0  0  0
    1.9875   -2.7417    0.0000 C   0  0  0  0  0  0  0  0  0  0  0  0
    5.4792   -4.2417    0.0000 C   0  0  0  0  0  0  0  0  0  0  0  0
    1.2625   -3.1375    0.0000 C   0  0  0  0  0  0  0  0  0  0  0  0
    4.8292   -1.9042    0.0000 O   0  0  0  0  0  0  0  0  0  0  0  0
    6.7375   -3.7625    0.0000 C   0  0  0  0  0  0  0  0  0  0  0  0
    2.9500    0.6833    0.0000 O   0  0  0  0  0  0  0  0  0  0  0  0
    1.2917   -1.4792    0.0000 C   0  0  0  0  0  0  0  0  0  0  0  0
    6.2125   -3.1167    0.0000 C   0  0  0  0  0  0  0  0  0  0  0  0
    0.5500   -2.7000    0.0000 C   0  0  0  0  0  0  0  0  0  0  0  0
    4.3792   -0.1542    0.0000 O   0  0  0  0  0  0  0  0  0  0  0  0
    3.3167   -2.8667    0.0000 C   0  0  0  0  0  0  0  0  0  0  0  0
    0.5667   -1.8750    0.0000 C   0  0  0  0  0  0  0  0  0  0  0  0
    4.0042   -3.3250    0.0000 C   0  0  0  0  0  0  0  0  0  0  0  0
    1.2375   -3.9625    0.0000 O   0  0  0  0  0  0  0  0  0  0  0  0
    4.7500   -2.9542    0.0000 C   0  0  0  0  0  0  0  0  0  0  0  0
   -0.1708   -3.0917    0.0000 O   0  0  0  0  0  0  0  0  0  0  0  0
   -0.2458   -0.8417    0.0000 C   0  0  0  0  0  0  0  0  0  0  0  0
   -0.2208    0.8000    0.0000 C   0  0  0  0  0  0  0  0  0  0  0  0
    0.5167   -4.3542    0.0000 C   0  0  0  0  0  0  0  0  0  0  0  0
    0.4917   -5.1792    0.0000 C   0  0  0  0  0  0  0  0  0  0  0  0
   -0.9583   -0.4250    0.0000 C   0  0  0  0  0  0  0  0  0  0  0  0
   -0.9458    0.4083    0.0000 C   0  0  0  0  0  0  0  0  0  0  0  0
  2  5  1  0  0  0  0
  3  1  2  0  0  0  0
  4  3  1  0  0  0  0
  5  1  1  0  0  0  0
  6  7  1  0  0  0  0
  7  1  1  0  0  0  0
  8  6  1  0  0  0  0
  9  5  1  0  0  0  0
 10  6  2  0  0  0  0
 11 16  2  0  0  0  0
 12  8  1  0  0  0  0
 13 29  1  0  0  0  0
 14 10  1  0  0  0  0
 15  9  1  0  0  0  0
 16 13  1  0  0  0  0
 17 15  2  0  0  0  0
 18  4  2  0  0  0  0
 19 22  2  0  0  0  0
 20  7  2  0  0  0  0
 21  9  2  0  0  0  0
 22 13  1  0  0  0  0
 23 26  2  0  0  0  0
 24  3  1  0  0  0  0
 25  2  1  0  0  0  0
 26 21  1  0  0  0  0
 27 25  1  0  0  0  0
 28 17  1  0  0  0  0
 29 27  1  0  0  0  0
 30 23  1  0  0  0  0
 31 12  1  0  0  0  0
 32 14  1  0  0  0  0
 33 28  1  0  0  0  0
 34 33  1  0  0  0  0
 35 31  2  0  0  0  0
 36 32  2  0  0  0  0
  2  4  1  0  0  0  0
 12 14  2  0  0  0  0
 17 23  1  0  0  0  0
 36 35  1  0  0  0  0
 11 19  1  0  0  0  0
M  END
>  <Code> (P1676975)
P1676975

>  <Number of H-Donors> (P1676975)
2

>  <Number of H-Acceptors> (P1676975)
6

>  <Number of Rotatable bonds> (P1676975)
9

>  <CLogP> (P1676975)
2.900000000000000e+000

>  <Number of Rings> (P1676975)
5

>  <PSA> (P1676975)
1.180000000000000e+002

$$$$

  -ISIS-  11102212342D

 29 32  0  0  0  0  0  0  0  0999 V2000
    3.6792   -0.3875    0.0000 C   0  0  0  0  0  0  0  0  0  0  0  0
    4.1042   -1.6542    0.0000 N   0  0  3  0  0  0  0  0  0  0  0  0
    4.5042   -0.3792    0.0000 C   0  0  0  0  0  0  0  0  0  0  0  0
    4.7667   -1.1667    0.0000 C   0  0  0  0  0  0  0  0  0  0  0  0
    3.4292   -1.1667    0.0000 C   0  0  3  0  0  0  0  0  0  0  0  0
    3.1917    0.2750    0.0000 C   0  0  0  0  0  0  0  0  0  0  0  0
    2.6500   -1.4292    0.0000 C   0  0  0  0  0  0  0  0  0  0  0  0
    4.1042   -2.4792    0.0000 C   0  0  0  0  0  0  0  0  0  0  0  0
    4.8167   -2.8875    0.0000 C   0  0  0  0  0  0  0  0  0  0  0  0
    5.5500   -1.4167    0.0000 O   0  0  0  0  0  0  0  0  0  0  0  0
    2.3917    0.4708    0.0000 C   0  0  0  0  0  0  0  0  0  0  0  0
    4.9042   -3.7042    0.0000 O   0  0  0  0  0  0  0  0  0  0  0  0
    2.4792   -2.2375    0.0000 C   0  0  0  0  0  0  0  0  0  0  0  0
    3.5292    1.0333    0.0000 O   0  0  0  0  0  0  0  0  0  0  0  0
    4.9917    0.2875    0.0000 O   0  0  0  0  0  0  0  0  0  0  0  0
    5.5625   -2.5542    0.0000 C   0  0  0  0  0  0  0  0  0  0  0  0
    5.7042   -3.8667    0.0000 C   0  0  0  0  0  0  0  0  0  0  0  0
    6.1167   -3.1625    0.0000 C   0  0  0  0  0  0  0  0  0  0  0  0
    2.1625    1.2708    0.0000 C   0  0  0  0  0  0  0  0  0  0  0  0
    1.8250   -0.1250    0.0000 C   0  0  0  0  0  0  0  0  0  0  0  0
    1.7042   -2.4917    0.0000 C   0  0  0  0  0  0  0  0  0  0  0  0
    0.7875    0.8625    0.0000 C   0  0  0  0  0  0  0  0  0  0  0  0
    1.0167    0.0625    0.0000 C   0  0  0  0  0  0  0  0  0  0  0  0
    1.3542    1.4583    0.0000 C   0  0  0  0  0  0  0  0  0  0  0  0
   -0.0083    1.0583    0.0000 Cl  0  0  0  0  0  0  0  0  0  0  0  0
    2.0292   -0.8792    0.0000 C   0  0  0  0  0  0  0  0  0  0  0  0
    1.5292   -3.3000    0.0000 O   0  0  0  0  0  0  0  0  0  0  0  0
    1.2417   -1.1292    0.0000 C   0  0  0  0  0  0  0  0  0  0  0  0
    1.0792   -1.9417    0.0000 C   0  0  0  0  0  0  0  0  0  0  0  0
  2  5  1  0  0  0  0
  3  1  2  0  0  0  0
  4  3  1  0  0  0  0
  5  1  1  0  0  0  0
  6  1  1  0  0  0  0
  7  5  1  0  0  0  0
  8  2  1  0  0  0  0
  9  8  1  0  0  0  0
 10  4  2  0  0  0  0
 11  6  1  0  0  0  0
 12  9  1  0  0  0  0
 13  7  1  0  0  0  0
 14  6  2  0  0  0  0
 15  3  1  0  0  0  0
 16  9  2  0  0  0  0
 17 12  1  0  0  0  0
 18 16  1  0  0  0  0
 19 11  2  0  0  0  0
 20 11  1  0  0  0  0
 21 13  2  0  0  0  0
 22 23  1  0  0  0  0
 23 20  2  0  0  0  0
 24 19  1  0  0  0  0
 25 22  1  0  0  0  0
 26  7  2  0  0  0  0
 27 21  1  0  0  0  0
 28 26  1  0  0  0  0
 29 28  2  0  0  0  0
  2  4  1  0  0  0  0
 24 22  2  0  0  0  0
 29 21  1  0  0  0  0
 17 18  2  0  0  0  0
M  END
>  <Code> (P1674390)
P1674390

>  <Number of H-Donors> (P1674390)
2

>  <Number of H-Acceptors> (P1674390)
4

>  <Number of Rotatable bonds> (P1674390)
5

>  <CLogP> (P1674390)
3.600000000000000e+000

>  <Number of Rings> (P1674390)
4

>  <PSA> (P1674390)
9.100000000000000e+001

$$$$

  -ISIS-  11102212342D

 26 28  0  0  0  0  0  0  0  0999 V2000
    1.1167   -0.7667    0.0000 C   0  0  0  0  0  0  0  0  0  0  0  0
    1.2625   -2.0917    0.0000 N   0  0  3  0  0  0  0  0  0  0  0  0
    1.9250   -0.9417    0.0000 C   0  0  0  0  0  0  0  0  0  0  0  0
    2.0042   -1.7667    0.0000 C   0  0  0  0  0  0  0  0  0  0  0  0
    0.7042   -1.4792    0.0000 C   0  0  3  0  0  0  0  0  0  0  0  0
    0.7792   -0.0042    0.0000 C   0  0  0  0  0  0  0  0  0  0  0  0
    1.0917   -2.9042    0.0000 C   0  0  0  0  0  0  0  0  0  0  0  0
   -0.1208   -1.5667    0.0000 C   0  0  0  0  0  0  0  0  0  0  0  0
    2.7167   -2.1917    0.0000 O   0  0  0  0  0  0  0  0  0  0  0  0
    1.2792    0.6750    0.0000 O   0  0  0  0  0  0  0  0  0  0  0  0
    2.5417   -0.3917    0.0000 O   0  0  0  0  0  0  0  0  0  0  0  0
    3.0917   -3.7417    0.0000 N   0  0  0  0  0  0  0  0  0  0  0  0
    1.7042   -3.4542    0.0000 C   0  0  0  0  0  0  0  0  0  0  0  0
   -0.4500   -2.3167    0.0000 C   0  0  0  0  0  0  0  0  0  0  0  0
   -0.6000   -0.9000    0.0000 C   0  0  0  0  0  0  0  0  0  0  0  0
   -0.0500    0.1000    0.0000 O   0  0  0  0  0  0  0  0  0  0  0  0
   -1.2750   -2.4042    0.0000 C   0  0  0  0  0  0  0  0  0  0  0  0
   -1.4208   -0.9875    0.0000 C   0  0  0  0  0  0  0  0  0  0  0  0
   -1.7500   -1.7375    0.0000 C   0  0  0  0  0  0  0  0  0  0  0  0
    2.4792   -3.1917    0.0000 C   0  0  0  0  0  0  0  0  0  0  0  0
    2.9292   -4.5625    0.0000 C   0  0  0  0  0  0  0  0  0  0  0  0
    1.5292   -4.2542    0.0000 C   0  0  0  0  0  0  0  0  0  0  0  0
   -0.3750    0.8625    0.0000 C   0  0  0  0  0  0  0  0  0  0  0  0
   -2.5833   -1.8167    0.0000 C   0  0  0  0  0  0  0  0  0  0  0  0
    2.1417   -4.8125    0.0000 C   0  0  0  0  0  0  0  0  0  0  0  0
    0.1292    1.5208    0.0000 C   0  0  0  0  0  0  0  0  0  0  0  0
  2  5  1  0  0  0  0
  3  1  2  0  0  0  0
  4  3  1  0  0  0  0
  5  1  1  0  0  0  0
  6  1  1  0  0  0  0
  7  2  1  0  0  0  0
  8  5  1  0  0  0  0
  9  4  2  0  0  0  0
 10  6  2  0  0  0  0
 11  3  1  0  0  0  0
 12 20  2  0  0  0  0
 13  7  1  0  0  0  0
 14  8  1  0  0  0  0
 15  8  2  0  0  0  0
 16  6  1  0  0  0  0
 17 14  2  0  0  0  0
 18 15  1  0  0  0  0
 19 18  2  0  0  0  0
 20 13  1  0  0  0  0
 21 25  2  0  0  0  0
 22 13  2  0  0  0  0
 23 16  1  0  0  0  0
 24 19  1  0  0  0  0
 25 22  1  0  0  0  0
 26 23  1  0  0  0  0
  4  2  1  0  0  0  0
 17 19  1  0  0  0  0
 12 21  1  0  0  0  0
M  END
>  <Code> (P1665476)
P1665476

>  <Number of H-Donors> (P1665476)
1

>  <Number of H-Acceptors> (P1665476)
5

>  <Number of Rotatable bonds> (P1665476)
6

>  <CLogP> (P1665476)
2.100000000000000e+000

>  <Number of Rings> (P1665476)
3

>  <PSA> (P1665476)
7.970000000000000e+001

$$$$

  -ISIS-  11102212342D

 17 19  0  0  0  0  0  0  0  0999 V2000
    1.9917   -0.9042    0.0000 C   0  0  0  0  0  0  0  0  0  0  0  0
    1.2125   -0.7417    0.0000 N   0  0  0  0  0  0  0  0  0  0  0  0
    2.1542   -1.6917    0.0000 N   0  0  3  0  0  0  0  0  0  0  0  0
    0.8542   -1.5292    0.0000 C   0  0  0  0  0  0  0  0  0  0  0  0
    1.3750   -2.0500    0.0000 C   0  0  0  0  0  0  0  0  0  0  0  0
    2.6792   -0.3875    0.0000 C   0  0  0  0  0  0  0  0  0  0  0  0
    2.8667   -1.9917    0.0000 C   0  0  0  0  0  0  0  0  0  0  0  0
    3.3917   -0.6500    0.0000 C   0  0  0  0  0  0  0  0  0  0  0  0
    3.5125   -1.5292    0.0000 C   0  0  0  0  0  0  0  0  0  0  0  0
    0.0750   -1.7292    0.0000 C   0  0  0  0  0  0  0  0  0  0  0  0
   -0.0875   -2.5167    0.0000 C   0  0  0  0  0  0  0  0  0  0  0  0
   -0.6083   -1.1667    0.0000 C   0  0  0  0  0  0  0  0  0  0  0  0
   -1.5583   -2.2542    0.0000 C   0  0  0  0  0  0  0  0  0  0  0  0
   -0.8708   -2.8292    0.0000 C   0  0  0  0  0  0  0  0  0  0  0  0
   -1.3958   -1.4750    0.0000 C   0  0  0  0  0  0  0  0  0  0  0  0
   -2.3833   -2.4667    0.0000 F   0  0  0  0  0  0  0  0  0  0  0  0
    4.0292   -0.1292    0.0000 C   0  0  0  0  0  0  0  0  0  0  0  0
  2  1  2  0  0  0  0
  3  1  1  0  0  0  0
  4  2  1  0  0  0  0
  5  3  1  0  0  0  0
  6  1  1  0  0  0  0
  7  3  1  0  0  0  0
  8  6  2  0  0  0  0
  9  8  1  0  0  0  0
 10  4  1  0  0  0  0
 11 10  1  0  0  0  0
 12 10  2  0  0  0  0
 13 15  2  0  0  0  0
 14 11  2  0  0  0  0
 15 12  1  0  0  0  0
 16 13  1  0  0  0  0
 17  8  1  0  0  0  0
  5  4  2  0  0  0  0
  7  9  2  0  0  0  0
 13 14  1  0  0  0  0
M  END
>  <Code> (P1664596)
P1664596

>  <Number of H-Donors> (P1664596)
0

>  <Number of H-Acceptors> (P1664596)
1

>  <Number of Rotatable bonds> (P1664596)
1

>  <CLogP> (P1664596)
3.200000000000000e+000

>  <Number of Rings> (P1664596)
3

>  <PSA> (P1664596)
1.730000000000000e+001

$$$$

  -ISIS-  11102212342D

 25 27  0  0  0  0  0  0  0  0999 V2000
    4.8292   -2.5792    0.0000 C   0  0  0  0  0  0  0  0  0  0  0  0
    4.9167   -3.9167    0.0000 N   0  0  3  0  0  0  0  0  0  0  0  0
    5.6250   -2.7917    0.0000 C   0  0  0  0  0  0  0  0  0  0  0  0
    4.3750   -3.2792    0.0000 C   0  0  3  0  0  0  0  0  0  0  0  0
    5.6667   -3.6125    0.0000 C   0  0  0  0  0  0  0  0  0  0  0  0
    3.5667   -3.4167    0.0000 C   0  0  0  0  0  0  0  0  0  0  0  0
    4.5292   -1.8042    0.0000 C   0  0  0  0  0  0  0  0  0  0  0  0
    2.9875   -4.0042    0.0000 O   0  0  0  0  0  0  0  0  0  0  0  0
    5.0542   -1.1667    0.0000 C   0  0  0  0  0  0  0  0  0  0  0  0
    3.1917   -2.6875    0.0000 C   0  0  0  0  0  0  0  0  0  0  0  0
    4.7417   -4.7375    0.0000 C   0  0  0  0  0  0  0  0  0  0  0  0
    2.2542   -3.6292    0.0000 C   0  0  0  0  0  0  0  0  0  0  0  0
    5.8667   -1.3000    0.0000 S   0  0  0  0  0  0  0  0  0  0  0  0
    2.3750   -2.8250    0.0000 C   0  0  0  0  0  0  0  0  0  0  0  0
    6.3667   -4.0667    0.0000 O   0  0  0  0  0  0  0  0  0  0  0  0
    3.7125   -1.6792    0.0000 O   0  0  0  0  0  0  0  0  0  0  0  0
    4.9167   -0.3500    0.0000 C   0  0  0  0  0  0  0  0  0  0  0  0
    6.2292   -0.5542    0.0000 C   0  0  0  0  0  0  0  0  0  0  0  0
    6.2667   -2.2667    0.0000 O   0  0  0  0  0  0  0  0  0  0  0  0
    5.6542    0.0125    0.0000 C   0  0  0  0  0  0  0  0  0  0  0  0
    5.3500   -5.2917    0.0000 C   0  0  0  0  0  0  0  0  0  0  0  0
    5.1750   -6.0792    0.0000 N   0  0  3  0  0  0  0  0  0  0  0  0
    1.5292   -4.0042    0.0000 C   0  0  0  0  0  0  0  0  0  0  0  0
    5.7917   -6.6292    0.0000 C   0  0  0  0  0  0  0  0  0  0  0  0
    4.3917   -6.3500    0.0000 C   0  0  0  0  0  0  0  0  0  0  0  0
  2  4  1  0  0  0  0
  3  1  2  0  0  0  0
  4  1  1  0  0  0  0
  5  3  1  0  0  0  0
  6  4  1  0  0  0  0
  7  1  1  0  0  0  0
  8  6  1  0  0  0  0
  9  7  1  0  0  0  0
 10  6  2  0  0  0  0
 11  2  1  0  0  0  0
 12  8  1  0  0  0  0
 13  9  1  0  0  0  0
 14 10  1  0  0  0  0
 15  5  2  0  0  0  0
 16  7  2  0  0  0  0
 17  9  2  0  0  0  0
 18 13  1  0  0  0  0
 19  3  1  0  0  0  0
 20 17  1  0  0  0  0
 21 11  1  0  0  0  0
 22 21  1  0  0  0  0
 23 12  1  0  0  0  0
 24 22  1  0  0  0  0
 25 22  1  0  0  0  0
  5  2  1  0  0  0  0
 18 20  2  0  0  0  0
 12 14  2  0  0  0  0
M  END
>  <Code> (P1664497)
P1664497

>  <Number of H-Donors> (P1664497)
1

>  <Number of H-Acceptors> (P1664497)
4

>  <Number of Rotatable bonds> (P1664497)
6

>  <CLogP> (P1664497)
1.900000000000000e+000

>  <Number of Rings> (P1664497)
3

>  <PSA> (P1664497)
1.022000000000000e+002

$$$$

  -ISIS-  11102212342D

 35 38  0  0  0  0  0  0  0  0999 V2000
   -2.0583    0.5958    0.0000 C   0  0  0  0  0  0  0  0  0  0  0  0
   -1.0125    1.4625    0.0000 N   0  0  3  0  0  0  0  0  0  0  0  0
   -2.3458    1.3958    0.0000 C   0  0  0  0  0  0  0  0  0  0  0  0
   -1.6958    1.9333    0.0000 C   0  0  0  0  0  0  0  0  0  0  0  0
   -1.2458    0.6458    0.0000 C   0  0  3  0  0  0  0  0  0  0  0  0
   -2.4333   -0.1125    0.0000 C   0  0  0  0  0  0  0  0  0  0  0  0
   -0.6750    0.0458    0.0000 C   0  0  0  0  0  0  0  0  0  0  0  0
   -0.9833   -0.7125    0.0000 C   0  0  0  0  0  0  0  0  0  0  0  0
   -0.2583    1.7833    0.0000 C   0  0  0  0  0  0  0  0  0  0  0  0
   -0.4708   -1.3542    0.0000 C   0  0  0  0  0  0  0  0  0  0  0  0
   -1.7375    2.7875    0.0000 O   0  0  0  0  0  0  0  0  0  0  0  0
   -3.2875   -0.1292    0.0000 C   0  0  0  0  0  0  0  0  0  0  0  0
    0.1125    0.1750    0.0000 C   0  0  0  0  0  0  0  0  0  0  0  0
   -1.9500   -0.7917    0.0000 O   0  0  0  0  0  0  0  0  0  0  0  0
    0.3792   -1.2167    0.0000 C   0  0  0  0  0  0  0  0  0  0  0  0
   -3.1583    1.6333    0.0000 O   0  0  0  0  0  0  0  0  0  0  0  0
    0.0792    4.2667    0.0000 N   0  0  0  0  0  0  0  0  0  0  0  0
    0.6417   -0.4500    0.0000 C   0  0  0  0  0  0  0  0  0  0  0  0
   -3.7208    0.5833    0.0000 C   0  0  0  0  0  0  0  0  0  0  0  0
   -3.7000   -0.8292    0.0000 C   0  0  0  0  0  0  0  0  0  0  0  0
    2.2542   -2.2917    0.0000 C   0  0  0  0  0  0  0  0  0  0  0  0
    3.0625   -2.1250    0.0000 C   0  0  0  0  0  0  0  0  0  0  0  0
   -4.9833   -0.1750    0.0000 C   0  0  0  0  0  0  0  0  0  0  0  0
   -0.1333    2.6208    0.0000 C   0  0  0  0  0  0  0  0  0  0  0  0
   -0.7583   -2.1292    0.0000 O   0  0  0  0  0  0  0  0  0  0  0  0
   -4.5375   -0.8667    0.0000 C   0  0  0  0  0  0  0  0  0  0  0  0
   -4.5583    0.5750    0.0000 C   0  0  0  0  0  0  0  0  0  0  0  0
   -5.8458   -0.1917    0.0000 Cl  0  0  0  0  0  0  0  0  0  0  0  0
    0.9167   -1.8375    0.0000 O   0  0  0  0  0  0  0  0  0  0  0  0
    1.7375   -1.6792    0.0000 C   0  0  0  0  0  0  0  0  0  0  0  0
   -0.7125    3.9333    0.0000 C   0  0  0  0  0  0  0  0  0  0  0  0
    0.7292    3.8125    0.0000 C   0  0  0  0  0  0  0  0  0  0  0  0
   -0.7750    3.0958    0.0000 C   0  0  0  0  0  0  0  0  0  0  0  0
    0.6417    2.9583    0.0000 C   0  0  0  0  0  0  0  0  0  0  0  0
   -1.5458   -2.2542    0.0000 C   0  0  0  0  0  0  0  0  0  0  0  0
  2  5  1  0  0  0  0
  3  1  2  0  0  0  0
  4  3  1  0  0  0  0
  5  1  1  0  0  0  0
  6  1  1  0  0  0  0
  7  5  1  0  0  0  0
  8  7  2  0  0  0  0
  9  2  1  0  0  0  0
 10  8  1  0  0  0  0
 11  4  2  0  0  0  0
 12  6  1  0  0  0  0
 13  7  1  0  0  0  0
 14  6  2  0  0  0  0
 15 18  1  0  0  0  0
 16  3  1  0  0  0  0
 17 32  2  0  0  0  0
 18 13  2  0  0  0  0
 19 12  1  0  0  0  0
 20 12  2  0  0  0  0
 21 30  1  0  0  0  0
 22 21  2  0  0  0  0
 23 26  2  0  0  0  0
 24  9  1  0  0  0  0
 25 10  1  0  0  0  0
 26 20  1  0  0  0  0
 27 19  2  0  0  0  0
 28 23  1  0  0  0  0
 29 15  1  0  0  0  0
 30 29  1  0  0  0  0
 31 33  2  0  0  0  0
 32 34  1  0  0  0  0
 33 24  1  0  0  0  0
 34 24  2  0  0  0  0
 35 25  1  0  0  0  0
  4  2  1  0  0  0  0
 27 23  1  0  0  0  0
 15 10  2  0  0  0  0
 31 17  1  0  0  0  0
M  END
>  <Code> (P1664257)
P1664257

>  <Number of H-Donors> (P1664257)
1

>  <Number of H-Acceptors> (P1664257)
6

>  <Number of Rotatable bonds> (P1664257)
9

>  <CLogP> (P1664257)
4.100000000000000e+000

>  <Number of Rings> (P1664257)
4

>  <PSA> (P1664257)
8.900000000000000e+001

$$$$

  -ISIS-  11102212342D

 17 19  0  0  0  0  0  0  0  0999 V2000
   -0.9250   -1.0250    0.0000 N   0  0  3  0  0  0  0  0  0  0  0  0
   -1.7125    0.0333    0.0000 N   0  0  0  0  0  0  0  0  0  0  0  0
   -0.9333   -0.1917    0.0000 C   0  0  0  0  0  0  0  0  0  0  0  0
   -2.1833   -0.6125    0.0000 C   0  0  0  0  0  0  0  0  0  0  0  0
   -1.6958   -1.2667    0.0000 C   0  0  0  0  0  0  0  0  0  0  0  0
   -0.1958   -1.4042    0.0000 C   0  0  0  0  0  0  0  0  0  0  0  0
   -0.2208    0.2333    0.0000 C   0  0  0  0  0  0  0  0  0  0  0  0
    0.5167   -0.9792    0.0000 C   0  0  0  0  0  0  0  0  0  0  0  0
    0.5167   -0.1542    0.0000 C   0  0  0  0  0  0  0  0  0  0  0  0
   -2.9958   -0.7167    0.0000 C   0  0  0  0  0  0  0  0  0  0  0  0
   -3.4833   -0.0500    0.0000 C   0  0  0  0  0  0  0  0  0  0  0  0
   -3.3208   -1.4417    0.0000 C   0  0  0  0  0  0  0  0  0  0  0  0
   -4.3083   -0.1417    0.0000 C   0  0  0  0  0  0  0  0  0  0  0  0
   -4.1250   -1.5500    0.0000 C   0  0  0  0  0  0  0  0  0  0  0  0
   -4.6333   -0.8917    0.0000 C   0  0  0  0  0  0  0  0  0  0  0  0
    1.2250   -1.4167    0.0000 C   0  0  0  0  0  0  0  0  0  0  0  0
   -5.4708   -0.9542    0.0000 C   0  0  0  0  0  0  0  0  0  0  0  0
  2  3  2  0  0  0  0
  3  1  1  0  0  0  0
  4  5  2  0  0  0  0
  5  1  1  0  0  0  0
  6  1  1  0  0  0  0
  7  3  1  0  0  0  0
  8  6  2  0  0  0  0
  9  8  1  0  0  0  0
 10  4  1  0  0  0  0
 11 10  1  0  0  0  0
 12 10  2  0  0  0  0
 13 11  2  0  0  0  0
 14 12  1  0  0  0  0
 15 14  2  0  0  0  0
 16  8  1  0  0  0  0
 17 15  1  0  0  0  0
  4  2  1  0  0  0  0
  9  7  2  0  0  0  0
 13 15  1  0  0  0  0
M  END
>  <Code> (P1663999)
P1663999

>  <Number of H-Donors> (P1663999)
0

>  <Number of H-Acceptors> (P1663999)
1

>  <Number of Rotatable bonds> (P1663999)
1

>  <CLogP> (P1663999)
3.500000000000000e+000

>  <Number of Rings> (P1663999)
3

>  <PSA> (P1663999)
1.730000000000000e+001

$$$$

  -ISIS-  11102212342D

 17 18  0  0  0  0  0  0  0  0999 V2000
   -0.1500   -0.9125    0.0000 C   0  0  0  0  0  0  0  0  0  0  0  0
    0.5167   -1.3917    0.0000 S   0  0  0  0  0  0  0  0  0  0  0  0
    1.1792   -0.9042    0.0000 C   0  0  0  0  0  0  0  0  0  0  0  0
    0.9292   -0.1167    0.0000 N   0  0  0  0  0  0  0  0  0  0  0  0
    0.1000   -0.1250    0.0000 C   0  0  0  0  0  0  0  0  0  0  0  0
   -0.9333   -1.1667    0.0000 C   0  0  0  0  0  0  0  0  0  0  0  0
    1.9667   -1.1542    0.0000 C   0  0  0  0  0  0  0  0  0  0  0  0
   -1.5500   -0.6167    0.0000 O   0  0  0  0  0  0  0  0  0  0  0  0
    2.1417   -1.9667    0.0000 C   0  0  0  0  0  0  0  0  0  0  0  0
    2.5750   -0.6042    0.0000 C   0  0  0  0  0  0  0  0  0  0  0  0
   -1.1000   -1.9792    0.0000 O   0  0  0  0  0  0  0  0  0  0  0  0
    2.9250   -2.2167    0.0000 C   0  0  0  0  0  0  0  0  0  0  0  0
    3.3542   -0.8542    0.0000 C   0  0  0  0  0  0  0  0  0  0  0  0
    3.5375   -1.6625    0.0000 C   0  0  0  0  0  0  0  0  0  0  0  0
   -1.8833   -2.2375    0.0000 C   0  0  0  0  0  0  0  0  0  0  0  0
    4.3167   -1.9125    0.0000 C   0  0  0  0  0  0  0  0  0  0  0  0
   -2.0500   -3.0417    0.0000 C   0  0  0  0  0  0  0  0  0  0  0  0
  2  1  1  0  0  0  0
  3  2  1  0  0  0  0
  4  5  1  0  0  0  0
  5  1  2  0  0  0  0
  6  1  1  0  0  0  0
  7  3  1  0  0  0  0
  8  6  2  0  0  0  0
  9  7  2  0  0  0  0
 10  7  1  0  0  0  0
 11  6  1  0  0  0  0
 12  9  1  0  0  0  0
 13 10  2  0  0  0  0
 14 13  1  0  0  0  0
 15 11  1  0  0  0  0
 16 14  1  0  0  0  0
 17 15  1  0  0  0  0
  3  4  2  0  0  0  0
 12 14  2  0  0  0  0
M  END
>  <Code> (P1655157)
P1655157

>  <Number of H-Donors> (P1655157)
0

>  <Number of H-Acceptors> (P1655157)
3

>  <Number of Rotatable bonds> (P1655157)
4

>  <CLogP> (P1655157)
3.200000000000000e+000

>  <Number of Rings> (P1655157)
2

>  <PSA> (P1655157)
6.740000000000001e+001

$$$$

  -ISIS-  11102212342D

 25 27  0  0  0  0  0  0  0  0999 V2000
   -2.1583    2.0708    0.0000 N   0  0  3  0  0  0  0  0  0  0  0  0
   -2.9875    2.0708    0.0000 C   0  0  0  0  0  0  0  0  0  0  0  0
   -1.9083    2.8583    0.0000 N   0  0  0  0  0  0  0  0  0  0  0  0
   -3.2375    2.8583    0.0000 C   0  0  0  0  0  0  0  0  0  0  0  0
   -2.5708    3.3458    0.0000 C   0  0  0  0  0  0  0  0  0  0  0  0
   -4.0458    3.0333    0.0000 C   0  0  0  0  0  0  0  0  0  0  0  0
   -3.5333    1.4583    0.0000 N   0  0  0  0  0  0  0  0  0  0  0  0
   -4.6000    2.4208    0.0000 N   0  0  0  0  0  0  0  0  0  0  0  0
   -1.6833    1.4000    0.0000 C   0  0  0  0  0  0  0  0  0  0  0  0
   -4.3458    1.6333    0.0000 C   0  0  0  0  0  0  0  0  0  0  0  0
   -0.8500    1.4958    0.0000 C   0  0  0  0  0  0  0  0  0  0  0  0
   -2.0208    0.6500    0.0000 C   0  0  0  0  0  0  0  0  0  0  0  0
   -4.3000    3.8083    0.0000 N   0  0  0  0  0  0  0  0  0  0  0  0
   -0.7083    0.0708    0.0000 C   0  0  0  0  0  0  0  0  0  0  0  0
   -6.4042    5.7167    0.0000 N   0  0  3  0  0  0  0  0  0  0  0  0
   -0.3708    0.8125    0.0000 C   0  0  0  0  0  0  0  0  0  0  0  0
   -1.5333   -0.0167    0.0000 C   0  0  0  0  0  0  0  0  0  0  0  0
   -0.2250   -0.6042    0.0000 F   0  0  0  0  0  0  0  0  0  0  0  0
   -5.3625    4.7625    0.0000 C   0  0  0  0  0  0  0  0  0  0  0  0
   -5.1000    3.9833    0.0000 C   0  0  0  0  0  0  0  0  0  0  0  0
   -6.1542    4.9292    0.0000 C   0  0  0  0  0  0  0  0  0  0  0  0
   -7.2125    5.8917    0.0000 C   0  0  0  0  0  0  0  0  0  0  0  0
   -5.8708    6.3292    0.0000 C   0  0  0  0  0  0  0  0  0  0  0  0
   -7.4667    6.6667    0.0000 C   0  0  0  0  0  0  0  0  0  0  0  0
   -6.1042    7.1125    0.0000 C   0  0  0  0  0  0  0  0  0  0  0  0
  2  1  1  0  0  0  0
  3  1  1  0  0  0  0
  4  2  2  0  0  0  0
  5  3  2  0  0  0  0
  6  4  1  0  0  0  0
  7  2  1  0  0  0  0
  8 10  1  0  0  0  0
  9  1  1  0  0  0  0
 10  7  2  0  0  0  0
 11  9  1  0  0  0  0
 12  9  2  0  0  0  0
 13  6  1  0  0  0  0
 14 17  2  0  0  0  0
 15 21  1  0  0  0  0
 16 11  2  0  0  0  0
 17 12  1  0  0  0  0
 18 14  1  0  0  0  0
 19 20  1  0  0  0  0
 20 13  1  0  0  0  0
 21 19  1  0  0  0  0
 22 15  1  0  0  0  0
 23 15  1  0  0  0  0
 24 22  1  0  0  0  0
 25 23  1  0  0  0  0
  4  5  1  0  0  0  0
 16 14  1  0  0  0  0
  8  6  2  0  0  0  0
M  END
>  <Code> (P1597881)
P1597881

>  <Number of H-Donors> (P1597881)
1

>  <Number of H-Acceptors> (P1597881)
5

>  <Number of Rotatable bonds> (P1597881)
8

>  <CLogP> (P1597881)
2.700000000000000e+000

>  <Number of Rings> (P1597881)
3

>  <PSA> (P1597881)
5.890000000000000e+001

$$$$

  -ISIS-  11102212342D

 24 27  0  0  0  0  0  0  0  0999 V2000
   -3.0083    1.2625    0.0000 N   0  0  0  0  0  0  0  0  0  0  0  0
   -3.6958    1.6583    0.0000 C   0  0  0  0  0  0  0  0  0  0  0  0
   -2.3333    1.6583    0.0000 C   0  0  0  0  0  0  0  0  0  0  0  0
   -3.6958    2.4583    0.0000 N   0  0  0  0  0  0  0  0  0  0  0  0
   -2.3250    2.4583    0.0000 C   0  0  0  0  0  0  0  0  0  0  0  0
   -3.0083    2.8500    0.0000 C   0  0  0  0  0  0  0  0  0  0  0  0
   -0.9583    1.6583    0.0000 N   0  0  0  0  0  0  0  0  0  0  0  0
   -1.6458    1.2583    0.0000 N   0  0  3  0  0  0  0  0  0  0  0  0
   -0.9583    2.4583    0.0000 C   0  0  0  0  0  0  0  0  0  0  0  0
   -4.4125    1.2458    0.0000 N   0  0  3  0  0  0  0  0  0  0  0  0
   -3.0208    3.6750    0.0000 N   0  0  0  0  0  0  0  0  0  0  0  0
   -3.7333    4.0792    0.0000 C   0  0  0  0  0  0  0  0  0  0  0  0
   -5.1833    4.9167    0.0000 C   0  0  0  0  0  0  0  0  0  0  0  0
   -1.6458    0.4708    0.0000 C   0  0  0  0  0  0  0  0  0  0  0  0
   -4.4708    3.6750    0.0000 C   0  0  0  0  0  0  0  0  0  0  0  0
   -3.7333    4.9042    0.0000 C   0  0  0  0  0  0  0  0  0  0  0  0
   -4.4708    5.3250    0.0000 C   0  0  0  0  0  0  0  0  0  0  0  0
   -5.1833    4.0792    0.0000 C   0  0  0  0  0  0  0  0  0  0  0  0
   -4.4125    0.5125    0.0000 C   0  0  0  0  0  0  0  0  0  0  0  0
   -5.0458    1.6083    0.0000 C   0  0  0  0  0  0  0  0  0  0  0  0
   -5.8958    5.3292    0.0000 O   0  0  0  0  0  0  0  0  0  0  0  0
   -6.6917    5.1042    0.0000 C   0  0  0  0  0  0  0  0  0  0  0  0
   -5.0458    0.1583    0.0000 C   0  0  0  0  0  0  0  0  0  0  0  0
   -5.6708    1.2458    0.0000 C   0  0  0  0  0  0  0  0  0  0  0  0
  2  1  2  0  0  0  0
  3  1  1  0  0  0  0
  4  2  1  0  0  0  0
  5  3  2  0  0  0  0
  6  5  1  0  0  0  0
  7  8  1  0  0  0  0
  8  3  1  0  0  0  0
  9  5  1  0  0  0  0
 10  2  1  0  0  0  0
 11  6  1  0  0  0  0
 12 11  1  0  0  0  0
 13 17  1  0  0  0  0
 14  8  1  0  0  0  0
 15 12  2  0  0  0  0
 16 12  1  0  0  0  0
 17 16  2  0  0  0  0
 18 15  1  0  0  0  0
 19 10  1  0  0  0  0
 20 10  1  0  0  0  0
 21 13  1  0  0  0  0
 22 21  1  0  0  0  0
 23 19  1  0  0  0  0
 24 20  1  0  0  0  0
  9  7  2  0  0  0  0
  4  6  2  0  0  0  0
 24 23  1  0  0  0  0
 18 13  2  0  0  0  0
M  END
>  <Code> (P1592342)
P1592342

>  <Number of H-Donors> (P1592342)
1

>  <Number of H-Acceptors> (P1592342)
6

>  <Number of Rotatable bonds> (P1592342)
4

>  <CLogP> (P1592342)
2.100000000000000e+000

>  <Number of Rings> (P1592342)
4

>  <PSA> (P1592342)
6.809999999999999e+001

$$$$

  -ISIS-  11102212342D

 23 26  0  0  0  0  0  0  0  0999 V2000
    2.5375   -1.3750    0.0000 N   0  0  0  0  0  0  0  0  0  0  0  0
    3.2625   -0.9625    0.0000 C   0  0  0  0  0  0  0  0  0  0  0  0
    2.5292   -2.2000    0.0000 C   0  0  0  0  0  0  0  0  0  0  0  0
    3.2500   -2.6250    0.0000 N   0  0  0  0  0  0  0  0  0  0  0  0
    3.9667   -1.3875    0.0000 C   0  0  0  0  0  0  0  0  0  0  0  0
    3.9667   -2.2125    0.0000 C   0  0  0  0  0  0  0  0  0  0  0  0
    3.2750   -0.1375    0.0000 N   0  0  0  0  0  0  0  0  0  0  0  0
    1.8125   -2.6125    0.0000 N   0  0  0  0  0  0  0  0  0  0  0  0
    4.6792   -0.9667    0.0000 N   0  0  0  0  0  0  0  0  0  0  0  0
    4.6667   -2.6292    0.0000 N   0  0  0  0  0  0  0  0  0  0  0  0
    2.5625    0.2833    0.0000 C   0  0  0  0  0  0  0  0  0  0  0  0
    1.8042   -3.4375    0.0000 C   0  0  3  0  0  0  0  0  0  0  0  0
    5.3917   -1.3875    0.0000 C   0  0  0  0  0  0  0  0  0  0  0  0
    5.3917   -2.2167    0.0000 C   0  0  0  0  0  0  0  0  0  0  0  0
    2.5750    1.1083    0.0000 C   0  0  0  0  0  0  0  0  0  0  0  0
    1.8417   -0.1250    0.0000 C   0  0  0  0  0  0  0  0  0  0  0  0
    1.1375   -3.9042    0.0000 C   0  0  0  0  0  0  0  0  0  0  0  0
    2.4750   -3.9167    0.0000 C   0  0  0  0  0  0  0  0  0  0  0  0
    1.8667    1.5208    0.0000 C   0  0  0  0  0  0  0  0  0  0  0  0
    1.1375    0.2958    0.0000 C   0  0  0  0  0  0  0  0  0  0  0  0
    2.2125   -4.7042    0.0000 C   0  0  0  0  0  0  0  0  0  0  0  0
    1.3875   -4.6917    0.0000 C   0  0  0  0  0  0  0  0  0  0  0  0
    1.1417    1.1208    0.0000 C   0  0  0  0  0  0  0  0  0  0  0  0
  2  1  2  0  0  0  0
  3  1  1  0  0  0  0
  4  3  2  0  0  0  0
  5  2  1  0  0  0  0
  6  4  1  0  0  0  0
  7  2  1  0  0  0  0
  8  3  1  0  0  0  0
  9  5  1  0  0  0  0
 10  6  1  0  0  0  0
 11  7  1  0  0  0  0
 12  8  1  0  0  0  0
 13  9  2  0  0  0  0
 14 10  2  0  0  0  0
 15 11  2  0  0  0  0
 16 11  1  0  0  0  0
 17 12  1  0  0  0  0
 18 12  1  0  0  0  0
 19 15  1  0  0  0  0
 20 16  2  0  0  0  0
 21 18  1  0  0  0  0
 22 17  1  0  0  0  0
 23 20  1  0  0  0  0
  6  5  2  0  0  0  0
 22 21  1  0  0  0  0
 14 13  1  0  0  0  0
 19 23  2  0  0  0  0
M  END
>  <Code> (P1582169)
P1582169

>  <Number of H-Donors> (P1582169)
2

>  <Number of H-Acceptors> (P1582169)
6

>  <Number of Rotatable bonds> (P1582169)
4

>  <CLogP> (P1582169)
2.400000000000000e+000

>  <Number of Rings> (P1582169)
4

>  <PSA> (P1582169)
7.559999999999999e+001

$$$$

  -ISIS-  11102212342D

 28 31  0  0  0  0  0  0  0  0999 V2000
   -2.3583    1.4958    0.0000 N   0  0  3  0  0  0  0  0  0  0  0  0
   -3.1458    1.7458    0.0000 C   0  0  0  0  0  0  0  0  0  0  0  0
   -3.1500    2.5708    0.0000 C   0  0  0  0  0  0  0  0  0  0  0  0
   -1.8750    2.1708    0.0000 N   0  0  0  0  0  0  0  0  0  0  0  0
   -3.8708    2.9833    0.0000 C   0  0  0  0  0  0  0  0  0  0  0  0
   -2.0958    0.7125    0.0000 C   0  0  0  0  0  0  0  0  0  0  0  0
   -2.3708    2.8333    0.0000 C   0  0  0  0  0  0  0  0  0  0  0  0
   -3.8583    1.3208    0.0000 N   0  0  0  0  0  0  0  0  0  0  0  0
   -4.5833    2.5583    0.0000 N   0  0  0  0  0  0  0  0  0  0  0  0
   -1.2833    0.5500    0.0000 C   0  0  0  0  0  0  0  0  0  0  0  0
   -3.8833    3.8000    0.0000 N   0  0  0  0  0  0  0  0  0  0  0  0
   -4.5708    1.7333    0.0000 C   0  0  0  0  0  0  0  0  0  0  0  0
   -2.6375    0.0958    0.0000 C   0  0  0  0  0  0  0  0  0  0  0  0
   -6.7667    6.2292    0.0000 C   0  0  0  0  0  0  0  0  0  0  0  0
   -6.7542    5.4042    0.0000 N   0  0  0  0  0  0  0  0  0  0  0  0
   -1.0208   -0.2292    0.0000 C   0  0  0  0  0  0  0  0  0  0  0  0
   -6.0542    6.6542    0.0000 O   0  0  0  0  0  0  0  0  0  0  0  0
   -4.5958    4.2000    0.0000 C   0  0  0  0  0  0  0  0  0  0  0  0
   -6.0292    5.0042    0.0000 C   0  0  0  0  0  0  0  0  0  0  0  0
   -2.3750   -0.6917    0.0000 C   0  0  0  0  0  0  0  0  0  0  0  0
   -1.5708   -0.8542    0.0000 C   0  0  0  0  0  0  0  0  0  0  0  0
   -5.3083    3.7708    0.0000 C   0  0  0  0  0  0  0  0  0  0  0  0
   -4.6083    5.0250    0.0000 C   0  0  0  0  0  0  0  0  0  0  0  0
   -6.0250    4.1667    0.0000 C   0  0  0  0  0  0  0  0  0  0  0  0
   -5.3333    5.4167    0.0000 C   0  0  0  0  0  0  0  0  0  0  0  0
   -0.7333    1.1708    0.0000 C   0  0  0  0  0  0  0  0  0  0  0  0
   -7.4792    6.6375    0.0000 C   0  0  0  0  0  0  0  0  0  0  0  0
   -1.3083   -1.6292    0.0000 C   0  0  0  0  0  0  0  0  0  0  0  0
  2  1  1  0  0  0  0
  3  2  2  0  0  0  0
  4  1  1  0  0  0  0
  5  3  1  0  0  0  0
  6  1  1  0  0  0  0
  7  4  2  0  0  0  0
  8  2  1  0  0  0  0
  9 12  1  0  0  0  0
 10  6  2  0  0  0  0
 11  5  1  0  0  0  0
 12  8  2  0  0  0  0
 13  6  1  0  0  0  0
 14 15  1  0  0  0  0
 15 19  1  0  0  0  0
 16 10  1  0  0  0  0
 17 14  2  0  0  0  0
 18 11  1  0  0  0  0
 19 25  2  0  0  0  0
 20 13  2  0  0  0  0
 21 20  1  0  0  0  0
 22 18  1  0  0  0  0
 23 18  2  0  0  0  0
 24 22  2  0  0  0  0
 25 23  1  0  0  0  0
 26 10  1  0  0  0  0
 27 14  1  0  0  0  0
 28 21  1  0  0  0  0
  3  7  1  0  0  0  0
 16 21  2  0  0  0  0
  9  5  2  0  0  0  0
 19 24  1  0  0  0  0
M  END
>  <Code> (P1581904)
P1581904

>  <Number of H-Donors> (P1581904)
2

>  <Number of H-Acceptors> (P1581904)
5

>  <Number of Rotatable bonds> (P1581904)
4

>  <CLogP> (P1581904)
3.200000000000000e+000

>  <Number of Rings> (P1581904)
4

>  <PSA> (P1581904)
8.470000000000000e+001

$$$$

  -ISIS-  11102212342D

 25 28  0  0  0  0  0  0  0  0999 V2000
   -2.3208    1.6500    0.0000 C   0  0  0  0  0  0  0  0  0  0  0  0
   -2.3208    2.4458    0.0000 C   0  0  0  0  0  0  0  0  0  0  0  0
   -3.0000    2.8458    0.0000 C   0  0  0  0  0  0  0  0  0  0  0  0
   -3.0000    1.2583    0.0000 N   0  0  0  0  0  0  0  0  0  0  0  0
   -3.6750    2.4458    0.0000 N   0  0  0  0  0  0  0  0  0  0  0  0
   -3.6750    1.6500    0.0000 C   0  0  0  0  0  0  0  0  0  0  0  0
   -0.9500    1.6500    0.0000 N   0  0  0  0  0  0  0  0  0  0  0  0
   -1.6375    1.2500    0.0000 N   0  0  3  0  0  0  0  0  0  0  0  0
   -0.9500    2.4458    0.0000 C   0  0  0  0  0  0  0  0  0  0  0  0
   -3.0083    3.6708    0.0000 N   0  0  0  0  0  0  0  0  0  0  0  0
   -4.3958    1.2375    0.0000 N   0  0  0  0  0  0  0  0  0  0  0  0
   -3.7208    4.0667    0.0000 C   0  0  0  0  0  0  0  0  0  0  0  0
   -5.1583    4.8917    0.0000 C   0  0  0  0  0  0  0  0  0  0  0  0
   -4.3958    0.4083    0.0000 C   0  0  3  0  0  0  0  0  0  0  0  0
   -1.6375    0.4708    0.0000 C   0  0  0  0  0  0  0  0  0  0  0  0
   -3.7208    4.8875    0.0000 C   0  0  0  0  0  0  0  0  0  0  0  0
   -4.4458    3.6708    0.0000 C   0  0  0  0  0  0  0  0  0  0  0  0
   -5.1625    4.0667    0.0000 C   0  0  0  0  0  0  0  0  0  0  0  0
   -4.4458    5.3042    0.0000 C   0  0  0  0  0  0  0  0  0  0  0  0
   -5.8708    5.3125    0.0000 O   0  0  0  0  0  0  0  0  0  0  0  0
   -6.6667    5.0917    0.0000 C   0  0  0  0  0  0  0  0  0  0  0  0
   -5.0625   -0.0750    0.0000 C   0  0  0  0  0  0  0  0  0  0  0  0
   -3.7250   -0.0792    0.0000 C   0  0  0  0  0  0  0  0  0  0  0  0
   -4.8208   -0.8667    0.0000 C   0  0  0  0  0  0  0  0  0  0  0  0
   -3.9958   -0.8667    0.0000 C   0  0  0  0  0  0  0  0  0  0  0  0
  2  1  2  0  0  0  0
  3  2  1  0  0  0  0
  4  1  1  0  0  0  0
  5  6  1  0  0  0  0
  6  4  2  0  0  0  0
  7  8  1  0  0  0  0
  8  1  1  0  0  0  0
  9  2  1  0  0  0  0
 10  3  1  0  0  0  0
 11  6  1  0  0  0  0
 12 10  1  0  0  0  0
 13 18  2  0  0  0  0
 14 11  1  0  0  0  0
 15  8  1  0  0  0  0
 16 12  1  0  0  0  0
 17 12  2  0  0  0  0
 18 17  1  0  0  0  0
 19 16  2  0  0  0  0
 20 13  1  0  0  0  0
 21 20  1  0  0  0  0
 22 14  1  0  0  0  0
 23 14  1  0  0  0  0
 24 22  1  0  0  0  0
 25 23  1  0  0  0  0
  9  7  2  0  0  0  0
  5  3  2  0  0  0  0
 25 24  1  0  0  0  0
 13 19  1  0  0  0  0
M  END
>  <Code> (P1581764)
P1581764

>  <Number of H-Donors> (P1581764)
2

>  <Number of H-Acceptors> (P1581764)
6

>  <Number of Rotatable bonds> (P1581764)
5

>  <CLogP> (P1581764)
2.800000000000000e+000

>  <Number of Rings> (P1581764)
4

>  <PSA> (P1581764)
7.690000000000001e+001

$$$$

  -ISIS-  11102212342D

 27 30  0  0  0  0  0  0  0  0999 V2000
    3.1750   -1.1167    0.0000 N   0  0  0  0  0  0  0  0  0  0  0  0
    3.9000   -0.7125    0.0000 C   0  0  0  0  0  0  0  0  0  0  0  0
    3.1667   -1.9500    0.0000 C   0  0  0  0  0  0  0  0  0  0  0  0
    3.8875   -2.3667    0.0000 N   0  0  0  0  0  0  0  0  0  0  0  0
    4.6125   -1.1292    0.0000 C   0  0  0  0  0  0  0  0  0  0  0  0
    4.6042   -1.9625    0.0000 C   0  0  0  0  0  0  0  0  0  0  0  0
    3.9125    0.1125    0.0000 N   0  0  0  0  0  0  0  0  0  0  0  0
    2.4542   -2.3500    0.0000 N   0  0  0  0  0  0  0  0  0  0  0  0
    5.3250   -0.7125    0.0000 N   0  0  0  0  0  0  0  0  0  0  0  0
    5.3125   -2.3750    0.0000 N   0  0  0  0  0  0  0  0  0  0  0  0
    2.4417   -3.1750    0.0000 C   0  0  0  0  0  0  0  0  0  0  0  0
    1.7250   -3.5875    0.0000 C   0  0  0  0  0  0  0  0  0  0  0  0
    3.2000    0.5333    0.0000 C   0  0  0  0  0  0  0  0  0  0  0  0
    1.7167   -4.4042    0.0000 C   0  0  0  0  0  0  0  0  0  0  0  0
    1.7792    1.3750    0.0000 C   0  0  0  0  0  0  0  0  0  0  0  0
    1.0042   -4.8125    0.0000 Cl  0  0  0  0  0  0  0  0  0  0  0  0
    2.4792    0.1250    0.0000 C   0  0  0  0  0  0  0  0  0  0  0  0
    3.2125    1.3583    0.0000 C   0  0  0  0  0  0  0  0  0  0  0  0
    1.7750    0.5500    0.0000 C   0  0  0  0  0  0  0  0  0  0  0  0
    2.5000    1.7750    0.0000 C   0  0  0  0  0  0  0  0  0  0  0  0
    1.0750    1.8000    0.0000 O   0  0  0  0  0  0  0  0  0  0  0  0
    6.0375   -1.1375    0.0000 C   0  0  0  0  0  0  0  0  0  0  0  0
    3.1500   -4.4167    0.0000 C   0  0  0  0  0  0  0  0  0  0  0  0
    6.0375   -1.9625    0.0000 C   0  0  0  0  0  0  0  0  0  0  0  0
    3.1625   -3.5917    0.0000 C   0  0  0  0  0  0  0  0  0  0  0  0
    2.4292   -4.8250    0.0000 C   0  0  0  0  0  0  0  0  0  0  0  0
    0.3542    1.3958    0.0000 C   0  0  0  0  0  0  0  0  0  0  0  0
  2  1  2  0  0  0  0
  3  1  1  0  0  0  0
  4  3  2  0  0  0  0
  5  2  1  0  0  0  0
  6  4  1  0  0  0  0
  7  2  1  0  0  0  0
  8  3  1  0  0  0  0
  9  5  1  0  0  0  0
 10  6  1  0  0  0  0
 11  8  1  0  0  0  0
 12 11  2  0  0  0  0
 13  7  1  0  0  0  0
 14 12  1  0  0  0  0
 15 20  2  0  0  0  0
 16 14  1  0  0  0  0
 17 13  1  0  0  0  0
 18 13  2  0  0  0  0
 19 17  2  0  0  0  0
 20 18  1  0  0  0  0
 21 15  1  0  0  0  0
 22  9  2  0  0  0  0
 23 25  2  0  0  0  0
 24 10  2  0  0  0  0
 25 11  1  0  0  0  0
 26 23  1  0  0  0  0
 27 21  1  0  0  0  0
  6  5  2  0  0  0  0
 24 22  1  0  0  0  0
 15 19  1  0  0  0  0
 14 26  2  0  0  0  0
M  END
>  <Code> (P1578664)
P1578664

>  <Number of H-Donors> (P1578664)
2

>  <Number of H-Acceptors> (P1578664)
7

>  <Number of Rotatable bonds> (P1578664)
5

>  <CLogP> (P1578664)
3.200000000000000e+000

>  <Number of Rings> (P1578664)
4

>  <PSA> (P1578664)
8.490000000000002e+001

$$$$

  -ISIS-  11102212342D

 28 31  0  0  0  0  0  0  0  0999 V2000
    3.3125   -0.1042    0.0000 C   0  0  0  0  0  0  0  0  0  0  0  0
    2.5875   -0.5125    0.0000 N   0  0  0  0  0  0  0  0  0  0  0  0
    3.3000   -1.7625    0.0000 N   0  0  0  0  0  0  0  0  0  0  0  0
    2.5792   -1.3375    0.0000 C   0  0  0  0  0  0  0  0  0  0  0  0
    4.0250   -0.5250    0.0000 C   0  0  0  0  0  0  0  0  0  0  0  0
    4.0167   -1.3500    0.0000 C   0  0  0  0  0  0  0  0  0  0  0  0
    3.3250    0.7208    0.0000 N   0  0  0  0  0  0  0  0  0  0  0  0
    1.1875    1.1583    0.0000 C   0  0  0  0  0  0  0  0  0  0  0  0
    1.9000    0.7333    0.0000 C   0  0  0  0  0  0  0  0  0  0  0  0
    4.7375   -0.1125    0.0000 N   0  0  0  0  0  0  0  0  0  0  0  0
    4.7250   -1.7667    0.0000 N   0  0  0  0  0  0  0  0  0  0  0  0
    1.1375   -3.8000    0.0000 N   0  0  3  0  0  0  0  0  0  0  0  0
    2.6125    1.1458    0.0000 C   0  0  0  0  0  0  0  0  0  0  0  0
    1.2000    1.9833    0.0000 C   0  0  0  0  0  0  0  0  0  0  0  0
    1.8625   -1.7500    0.0000 N   0  0  0  0  0  0  0  0  0  0  0  0
    1.1250   -5.4500    0.0000 O   0  0  0  0  0  0  0  0  0  0  0  0
    1.9167    2.3958    0.0000 C   0  0  0  0  0  0  0  0  0  0  0  0
    0.4667    0.7583    0.0000 Cl  0  0  0  0  0  0  0  0  0  0  0  0
    2.6250    1.9708    0.0000 C   0  0  0  0  0  0  0  0  0  0  0  0
    1.8542   -2.5750    0.0000 C   0  0  0  0  0  0  0  0  0  0  0  0
    1.1375   -2.9750    0.0000 C   0  0  0  0  0  0  0  0  0  0  0  0
    0.4250   -4.2125    0.0000 C   0  0  0  0  0  0  0  0  0  0  0  0
    1.8500   -4.2250    0.0000 C   0  0  0  0  0  0  0  0  0  0  0  0
    5.4500   -0.5250    0.0000 C   0  0  0  0  0  0  0  0  0  0  0  0
    5.4500   -1.3542    0.0000 C   0  0  0  0  0  0  0  0  0  0  0  0
    1.8375   -5.0500    0.0000 C   0  0  0  0  0  0  0  0  0  0  0  0
    0.4167   -5.0375    0.0000 C   0  0  0  0  0  0  0  0  0  0  0  0
    0.4875    2.4083    0.0000 C   0  0  0  0  0  0  0  0  0  0  0  0
  2  1  2  0  0  0  0
  3  6  1  0  0  0  0
  4  2  1  0  0  0  0
  5  1  1  0  0  0  0
  6  5  2  0  0  0  0
  7  1  1  0  0  0  0
  8  9  2  0  0  0  0
  9 13  1  0  0  0  0
 10  5  1  0  0  0  0
 11  6  1  0  0  0  0
 12 21  1  0  0  0  0
 13  7  1  0  0  0  0
 14 17  2  0  0  0  0
 15  4  1  0  0  0  0
 16 26  1  0  0  0  0
 17 19  1  0  0  0  0
 18  8  1  0  0  0  0
 19 13  2  0  0  0  0
 20 15  1  0  0  0  0
 21 20  1  0  0  0  0
 22 12  1  0  0  0  0
 23 12  1  0  0  0  0
 24 10  2  0  0  0  0
 25 24  1  0  0  0  0
 26 23  1  0  0  0  0
 27 22  1  0  0  0  0
 28 14  1  0  0  0  0
  4  3  2  0  0  0  0
 11 25  2  0  0  0  0
  8 14  1  0  0  0  0
 27 16  1  0  0  0  0
M  END
>  <Code> (P1574604)
P1574604

>  <Number of H-Donors> (P1574604)
2

>  <Number of H-Acceptors> (P1574604)
8

>  <Number of Rotatable bonds> (P1574604)
6

>  <CLogP> (P1574604)
2.000000000000000e+000

>  <Number of Rings> (P1574604)
4

>  <PSA> (P1574604)
8.810000000000002e+001

$$$$

  -ISIS-  11102212342D

 22 22  0  0  0  0  0  0  0  0999 V2000
    5.4667   -7.3667    0.0000 C   0  0  0  0  0  0  0  0  0  0  0  0
    4.7167   -7.7042    0.0000 N   0  0  0  0  0  0  0  0  0  0  0  0
    5.5500   -6.5417    0.0000 N   0  0  0  0  0  0  0  0  0  0  0  0
    4.1292   -6.4000    0.0000 N   0  0  0  0  0  0  0  0  0  0  0  0
    4.8792   -6.0667    0.0000 C   0  0  0  0  0  0  0  0  0  0  0  0
    4.0417   -7.2292    0.0000 C   0  0  0  0  0  0  0  0  0  0  0  0
    6.1375   -7.8417    0.0000 N   0  0  0  0  0  0  0  0  0  0  0  0
    7.7042   -6.3292    0.0000 C   0  0  0  0  0  0  0  0  0  0  0  0
    6.8875   -7.5042    0.0000 C   0  0  0  0  0  0  0  0  0  0  0  0
    6.9625   -6.6792    0.0000 C   0  0  0  0  0  0  0  0  0  0  0  0
    8.3875   -6.8125    0.0000 C   0  0  0  0  0  0  0  0  0  0  0  0
    4.9667   -5.2417    0.0000 N   0  0  0  0  0  0  0  0  0  0  0  0
    3.2875   -7.5667    0.0000 N   0  0  0  0  0  0  0  0  0  0  0  0
    8.3125   -7.6292    0.0000 C   0  0  0  0  0  0  0  0  0  0  0  0
    7.5667   -7.9792    0.0000 C   0  0  0  0  0  0  0  0  0  0  0  0
    2.5417   -4.6917    0.0000 Cl  0  0  0  0  0  0  0  0  0  0  0  0
    7.7792   -5.5167    0.0000 C   0  0  0  0  0  0  0  0  0  0  0  0
    9.1375   -6.4667    0.0000 C   0  0  0  0  0  0  0  0  0  0  0  0
    3.2042   -8.3792    0.0000 C   0  0  0  0  0  0  0  0  0  0  0  0
    5.7167   -4.9042    0.0000 C   0  0  0  0  0  0  0  0  0  0  0  0
    2.4542   -8.7292    0.0000 C   0  0  0  0  0  0  0  0  0  0  0  0
    5.8000   -4.0792    0.0000 C   0  0  0  0  0  0  0  0  0  0  0  0
  2  1  2  0  0  0  0
  3  1  1  0  0  0  0
  4  5  1  0  0  0  0
  5  3  2  0  0  0  0
  6  2  1  0  0  0  0
  7  1  1  0  0  0  0
  8 10  2  0  0  0  0
  9  7  1  0  0  0  0
 10  9  1  0  0  0  0
 11 14  2  0  0  0  0
 12  5  1  0  0  0  0
 13  6  1  0  0  0  0
 14 15  1  0  0  0  0
 15  9  2  0  0  0  0
 17  8  1  0  0  0  0
 18 11  1  0  0  0  0
 19 13  1  0  0  0  0
 20 12  1  0  0  0  0
 21 19  1  0  0  0  0
 22 20  1  0  0  0  0
  4  6  2  0  0  0  0
 11  8  1  0  0  0  0
M  END
>  <Code> (P1572651)
P1572651

>  <Saltdata> (P1572651)
HCl

>  <Number of H-Donors> (P1572651)
3

>  <Number of H-Acceptors> (P1572651)
6

>  <Number of Rotatable bonds> (P1572651)
6

>  <CLogP> (P1572651)
3.100000000000000e+000

>  <Number of Rings> (P1572651)
2

>  <PSA> (P1572651)
7.480000000000001e+001

$$$$

  -ISIS-  11102212342D

 21 20  0  0  0  0  0  0  0  0999 V2000
    2.8375   -8.8042    0.0000 C   0  0  0  0  0  0  0  0  0  0  0  0
    7.8292  -10.0917    0.0000 N   0  0  0  0  0  0  0  0  0  0  0  0
    7.1042  -10.5000    0.0000 C   0  0  0  0  0  0  0  0  0  0  0  0
    7.8042  -11.7500    0.0000 C   0  0  0  0  0  0  0  0  0  0  0  0
    3.5542   -9.2167    0.0000 C   0  0  0  0  0  0  0  0  0  0  0  0
    8.5250  -11.3417    0.0000 C   0  0  0  0  0  0  0  0  0  0  0  0
    7.1000  -11.3292    0.0000 C   0  0  0  0  0  0  0  0  0  0  0  0
    6.4000  -10.0792    0.0000 N   0  0  0  0  0  0  0  0  0  0  0  0
    8.5417  -10.5167    0.0000 C   0  0  0  0  0  0  0  0  0  0  0  0
    2.1250   -9.2042    0.0000 O   0  0  0  0  0  0  0  0  0  0  0  0
    3.5417  -10.0417    0.0000 C   0  0  0  0  0  0  0  0  0  0  0  0
    4.2750   -8.8125    0.0000 C   0  0  0  0  0  0  0  0  0  0  0  0
    2.8417   -7.9667    0.0000 O   0  0  0  0  0  0  0  0  0  0  0  0
    9.2292  -11.7667    0.0000 N   0  0  0  0  0  0  0  0  0  0  0  0
    5.6792  -10.4792    0.0000 C   0  0  0  0  0  0  0  0  0  0  0  0
    4.9667  -10.0542    0.0000 C   0  0  0  0  0  0  0  0  0  0  0  0
    4.2417  -10.4625    0.0000 C   0  0  0  0  0  0  0  0  0  0  0  0
    4.9792   -9.2292    0.0000 C   0  0  0  0  0  0  0  0  0  0  0  0
    5.8750   -7.7417    0.0000 Cl  0  0  0  0  0  0  0  0  0  0  0  0
    6.7167   -7.6500    0.0000 Cl  0  0  0  0  0  0  0  0  0  0  0  0
    7.7917  -12.5667    0.0000 C   0  0  0  0  0  0  0  0  0  0  0  0
  2  3  2  0  0  0  0
  3  8  1  0  0  0  0
  4  7  2  0  0  0  0
  5  1  1  0  0  0  0
  6  4  1  0  0  0  0
  7  3  1  0  0  0  0
  8 15  1  0  0  0  0
  9  2  1  0  0  0  0
 10  1  2  0  0  0  0
 11  5  2  0  0  0  0
 12  5  1  0  0  0  0
 13  1  1  0  0  0  0
 14  6  1  0  0  0  0
 15 16  1  0  0  0  0
 16 18  1  0  0  0  0
 17 11  1  0  0  0  0
 18 12  2  0  0  0  0
 21  4  1  0  0  0  0
 17 16  2  0  0  0  0
  9  6  2  0  0  0  0
M  END
>  <Code> (P1522920)
P1522920

>  <Saltdata> (P1522920)
2 HCl

>  <Number of H-Donors> (P1522920)
3

>  <Number of H-Acceptors> (P1522920)
5

>  <Number of Rotatable bonds> (P1522920)
4

>  <CLogP> (P1522920)
2.300000000000000e+000

>  <Number of Rings> (P1522920)
2

>  <PSA> (P1522920)
8.820000000000000e+001

$$$$

  -ISIS-  11102212342D

 18 20  0  0  0  0  0  0  0  0999 V2000
    5.3167   -2.7167    0.0000 N   0  0  3  0  0  0  0  0  0  0  0  0
    4.9042   -3.4417    0.0000 C   0  0  0  0  0  0  0  0  0  0  0  0
    4.0917   -3.2667    0.0000 N   0  0  0  0  0  0  0  0  0  0  0  0
    4.0042   -2.4417    0.0000 C   0  0  0  0  0  0  0  0  0  0  0  0
    4.7625   -2.1042    0.0000 C   0  0  0  0  0  0  0  0  0  0  0  0
    6.1417   -2.7167    0.0000 C   0  0  0  0  0  0  0  0  0  0  0  0
    5.3250   -4.1625    0.0000 C   0  0  0  0  0  0  0  0  0  0  0  0
    6.5625   -3.4417    0.0000 C   0  0  0  0  0  0  0  0  0  0  0  0
    6.1500   -4.1542    0.0000 C   0  0  0  0  0  0  0  0  0  0  0  0
    3.2792   -2.0292    0.0000 C   0  0  0  0  0  0  0  0  0  0  0  0
    7.3917   -3.4292    0.0000 N   0  0  0  0  0  0  0  0  0  0  0  0
    2.5667   -2.4417    0.0000 C   0  0  0  0  0  0  0  0  0  0  0  0
    3.2792   -1.2125    0.0000 C   0  0  0  0  0  0  0  0  0  0  0  0
    1.8542   -1.2125    0.0000 C   0  0  0  0  0  0  0  0  0  0  0  0
    1.8542   -2.0292    0.0000 C   0  0  0  0  0  0  0  0  0  0  0  0
    2.5667   -0.8000    0.0000 C   0  0  0  0  0  0  0  0  0  0  0  0
    1.1500   -0.8042    0.0000 F   0  0  0  0  0  0  0  0  0  0  0  0
    6.5667   -4.8667    0.0000 C   0  0  0  0  0  0  0  0  0  0  0  0
  2  1  1  0  0  0  0
  3  2  2  0  0  0  0
  4  5  2  0  0  0  0
  5  1  1  0  0  0  0
  6  1  1  0  0  0  0
  7  2  1  0  0  0  0
  8  6  2  0  0  0  0
  9  8  1  0  0  0  0
 10  4  1  0  0  0  0
 11  8  1  0  0  0  0
 12 10  2  0  0  0  0
 13 10  1  0  0  0  0
 14 16  1  0  0  0  0
 15 12  1  0  0  0  0
 16 13  2  0  0  0  0
 17 14  1  0  0  0  0
 18  9  1  0  0  0  0
  4  3  1  0  0  0  0
  7  9  2  0  0  0  0
 14 15  2  0  0  0  0
M  END
>  <Code> (P1521760)
P1521760

>  <Number of H-Donors> (P1521760)
1

>  <Number of H-Acceptors> (P1521760)
2

>  <Number of Rotatable bonds> (P1521760)
1

>  <CLogP> (P1521760)
2.500000000000000e+000

>  <Number of Rings> (P1521760)
3

>  <PSA> (P1521760)
4.330000000000000e+001

$$$$

  -ISIS-  11102212342D

 16 17  0  0  0  0  0  0  0  0999 V2000
    1.8542   -3.8042    0.0000 N   0  0  3  0  0  0  0  0  0  0  0  0
    1.1417   -2.5625    0.0000 C   0  0  0  0  0  0  0  0  0  0  0  0
    2.5667   -3.3917    0.0000 C   0  0  0  0  0  0  0  0  0  0  0  0
    3.1875   -3.9417    0.0000 N   0  0  0  0  0  0  0  0  0  0  0  0
    1.1417   -3.3917    0.0000 C   0  0  0  0  0  0  0  0  0  0  0  0
    0.4292   -2.1500    0.0000 C   0  0  3  0  0  0  0  0  0  0  0  0
    2.0250   -4.6125    0.0000 C   0  0  0  0  0  0  0  0  0  0  0  0
    2.8417   -4.7000    0.0000 C   0  0  0  0  0  0  0  0  0  0  0  0
    1.8542   -2.1500    0.0000 C   0  0  0  0  0  0  0  0  0  0  0  0
    2.5667   -2.5625    0.0000 C   0  0  0  0  0  0  0  0  0  0  0  0
   -0.2208   -1.7750    0.0000 F   0  0  0  0  0  0  0  0  0  0  0  0
    0.2917   -1.2917    0.0000 F   0  0  0  0  0  0  0  0  0  0  0  0
   -0.3750   -2.4542    0.0000 F   0  0  0  0  0  0  0  0  0  0  0  0
    3.2542   -5.4167    0.0000 C   0  0  0  0  0  0  0  0  0  0  0  0
    2.0167   -6.1292    0.0000 N   0  0  0  0  0  0  0  0  0  0  0  0
    2.8417   -6.1292    0.0000 C   0  0  0  0  0  0  0  0  0  0  0  0
  2  5  2  0  0  0  0
  3  1  1  0  0  0  0
  4  3  2  0  0  0  0
  5  1  1  0  0  0  0
  6  2  1  0  0  0  0
  7  1  1  0  0  0  0
  8  7  2  0  0  0  0
  9  2  1  0  0  0  0
 10  3  1  0  0  0  0
 11  6  1  0  0  0  0
 12  6  1  0  0  0  0
 13  6  1  0  0  0  0
 14  8  1  0  0  0  0
 15 16  1  0  0  0  0
 16 14  1  0  0  0  0
  4  8  1  0  0  0  0
  9 10  2  0  0  0  0
M  END
>  <Code> (P1521520)
P1521520

>  <Number of H-Donors> (P1521520)
1

>  <Number of H-Acceptors> (P1521520)
2

>  <Number of Rotatable bonds> (P1521520)
3

>  <CLogP> (P1521520)
1.100000000000000e+000

>  <Number of Rings> (P1521520)
2

>  <PSA> (P1521520)
4.330000000000000e+001

$$$$

  -ISIS-  11102212342D

 20 22  0  0  0  0  0  0  0  0999 V2000
    5.3167   -2.7292    0.0000 N   0  0  3  0  0  0  0  0  0  0  0  0
    4.7667   -2.1167    0.0000 C   0  0  0  0  0  0  0  0  0  0  0  0
    4.0125   -2.4542    0.0000 C   0  0  0  0  0  0  0  0  0  0  0  0
    4.1000   -3.2750    0.0000 N   0  0  0  0  0  0  0  0  0  0  0  0
    4.9042   -3.4417    0.0000 C   0  0  0  0  0  0  0  0  0  0  0  0
    6.1500   -2.7167    0.0000 C   0  0  0  0  0  0  0  0  0  0  0  0
    4.9417   -1.3042    0.0000 C   0  0  0  0  0  0  0  0  0  0  0  0
    5.3292   -4.1625    0.0000 C   0  0  0  0  0  0  0  0  0  0  0  0
    3.2917   -2.0417    0.0000 C   0  0  0  0  0  0  0  0  0  0  0  0
    6.5667   -3.4417    0.0000 C   0  0  0  0  0  0  0  0  0  0  0  0
    6.1542   -4.1542    0.0000 C   0  0  0  0  0  0  0  0  0  0  0  0
    4.3250   -0.7542    0.0000 O   0  0  0  0  0  0  0  0  0  0  0  0
    3.2917   -1.2167    0.0000 C   0  0  0  0  0  0  0  0  0  0  0  0
    2.5792   -2.4542    0.0000 C   0  0  0  0  0  0  0  0  0  0  0  0
    5.7250   -1.0500    0.0000 O   0  0  0  0  0  0  0  0  0  0  0  0
    1.8667   -2.0417    0.0000 C   0  0  0  0  0  0  0  0  0  0  0  0
    2.5792   -0.8042    0.0000 C   0  0  0  0  0  0  0  0  0  0  0  0
    1.8667   -1.2167    0.0000 C   0  0  0  0  0  0  0  0  0  0  0  0
    7.3917   -3.4375    0.0000 C   0  0  0  0  0  0  0  0  0  0  0  0
    1.1542   -0.8042    0.0000 C   0  0  0  0  0  0  0  0  0  0  0  0
  2  1  1  0  0  0  0
  3  2  2  0  0  0  0
  4  5  2  0  0  0  0
  5  1  1  0  0  0  0
  6  1  1  0  0  0  0
  7  2  1  0  0  0  0
  8  5  1  0  0  0  0
  9  3  1  0  0  0  0
 10  6  2  0  0  0  0
 11 10  1  0  0  0  0
 12  7  2  0  0  0  0
 13  9  1  0  0  0  0
 14  9  2  0  0  0  0
 15  7  1  0  0  0  0
 16 14  1  0  0  0  0
 17 13  2  0  0  0  0
 18 16  2  0  0  0  0
 19 10  1  0  0  0  0
 20 18  1  0  0  0  0
  3  4  1  0  0  0  0
  8 11  2  0  0  0  0
 17 18  1  0  0  0  0
M  END
>  <Code> (P1515889)
P1515889

>  <Number of H-Donors> (P1515889)
1

>  <Number of H-Acceptors> (P1515889)
3

>  <Number of Rotatable bonds> (P1515889)
2

>  <CLogP> (P1515889)
3.500000000000000e+000

>  <Number of Rings> (P1515889)
3

>  <PSA> (P1515889)
5.460000000000000e+001

$$$$

  -ISIS-  11102212342D

 21 23  0  0  0  0  0  0  0  0999 V2000
    3.2500   -5.8625    0.0000 C   0  0  0  0  0  0  0  0  0  0  0  0
    5.3875   -6.2667    0.0000 C   0  0  0  0  0  0  0  0  0  0  0  0
    4.6750   -5.8542    0.0000 N   0  0  3  0  0  0  0  0  0  0  0  0
    2.4625   -4.7792    0.0000 N   0  0  0  0  0  0  0  0  0  0  0  0
    3.2500   -5.0375    0.0000 C   0  0  0  0  0  0  0  0  0  0  0  0
    6.1000   -5.8542    0.0000 C   0  0  0  0  0  0  0  0  0  0  0  0
    2.4667   -6.1167    0.0000 S   0  0  0  0  0  0  0  0  0  0  0  0
    1.9792   -5.4500    0.0000 C   0  0  0  0  0  0  0  0  0  0  0  0
    3.9667   -6.2667    0.0000 C   0  0  0  0  0  0  0  0  0  0  0  0
    3.9542   -4.6167    0.0000 C   0  0  0  0  0  0  0  0  0  0  0  0
    4.6750   -5.0292    0.0000 C   0  0  0  0  0  0  0  0  0  0  0  0
    6.8125   -6.2667    0.0000 C   0  0  0  0  0  0  0  0  0  0  0  0
    5.3875   -7.0917    0.0000 O   0  0  0  0  0  0  0  0  0  0  0  0
    6.8125   -7.0917    0.0000 F   0  0  0  0  0  0  0  0  0  0  0  0
    6.0917   -5.0292    0.0000 C   0  0  0  0  0  0  0  0  0  0  0  0
    1.1542   -5.4542    0.0000 C   0  0  0  0  0  0  0  0  0  0  0  0
    0.7417   -4.7417    0.0000 O   0  0  0  0  0  0  0  0  0  0  0  0
    7.5250   -5.8542    0.0000 C   0  0  0  0  0  0  0  0  0  0  0  0
   -0.0750   -4.7417    0.0000 C   0  0  0  0  0  0  0  0  0  0  0  0
    6.8042   -4.6167    0.0000 C   0  0  0  0  0  0  0  0  0  0  0  0
    7.5292   -5.0292    0.0000 C   0  0  0  0  0  0  0  0  0  0  0  0
  2  3  1  0  0  0  0
  3  9  1  0  0  0  0
  4  5  1  0  0  0  0
  5  1  2  0  0  0  0
  6  2  1  0  0  0  0
  7  1  1  0  0  0  0
  8  7  1  0  0  0  0
  9  1  1  0  0  0  0
 10  5  1  0  0  0  0
 11  3  1  0  0  0  0
 12  6  2  0  0  0  0
 13  2  2  0  0  0  0
 14 12  1  0  0  0  0
 15  6  1  0  0  0  0
 16  8  1  0  0  0  0
 17 16  1  0  0  0  0
 18 12  1  0  0  0  0
 19 17  1  0  0  0  0
 20 15  2  0  0  0  0
 21 20  1  0  0  0  0
  8  4  2  0  0  0  0
 11 10  1  0  0  0  0
 21 18  2  0  0  0  0
M  END
>  <Code> (P1446062)
P1446062

>  <Number of H-Donors> (P1446062)
0

>  <Number of H-Acceptors> (P1446062)
3

>  <Number of Rotatable bonds> (P1446062)
3

>  <CLogP> (P1446062)
1.800000000000000e+000

>  <Number of Rings> (P1446062)
3

>  <PSA> (P1446062)
7.070000000000000e+001

$$$$

  -ISIS-  11102212342D

 20 22  0  0  0  0  0  0  0  0999 V2000
    6.8917   -6.3000    0.0000 C   0  0  0  0  0  0  0  0  0  0  0  0
    5.4625   -6.3000    0.0000 C   0  0  0  0  0  0  0  0  0  0  0  0
    5.4625   -5.5000    0.0000 C   0  0  0  0  0  0  0  0  0  0  0  0
    6.8792   -5.4875    0.0000 N   0  0  3  0  0  0  0  0  0  0  0  0
    6.1792   -6.7042    0.0000 N   0  0  0  0  0  0  0  0  0  0  0  0
    4.7667   -6.7125    0.0000 N   0  0  3  0  0  0  0  0  0  0  0  0
    4.7667   -5.0667    0.0000 C   0  0  0  0  0  0  0  0  0  0  0  0
    4.0500   -6.3000    0.0000 C   0  0  0  0  0  0  0  0  0  0  0  0
    7.6042   -6.7042    0.0000 N   0  0  3  0  0  0  0  0  0  0  0  0
    4.0500   -5.4542    0.0000 N   0  0  0  0  0  0  0  0  0  0  0  0
    8.3042   -5.4750    0.0000 C   0  0  0  0  0  0  0  0  0  0  0  0
    8.3042   -6.2917    0.0000 C   0  0  0  0  0  0  0  0  0  0  0  0
    3.3375   -6.7500    0.0000 O   0  0  0  0  0  0  0  0  0  0  0  0
    4.7667   -4.2417    0.0000 O   0  0  0  0  0  0  0  0  0  0  0  0
    4.7667   -7.5292    0.0000 C   0  0  0  0  0  0  0  0  0  0  0  0
    7.3792   -7.5292    0.0000 C   0  0  0  0  0  0  0  0  0  0  0  0
    8.9042   -4.8667    0.0000 C   0  0  0  0  0  0  0  0  0  0  0  0
    9.0417   -6.7167    0.0000 C   0  0  0  0  0  0  0  0  0  0  0  0
    7.7625   -8.9500    0.0000 O   0  0  0  0  0  0  0  0  0  0  0  0
    7.9792   -8.1250    0.0000 C   0  0  0  0  0  0  0  0  0  0  0  0
  2  5  1  0  0  0  0
  3  4  1  0  0  0  0
  4  1  1  0  0  0  0
  5  1  2  0  0  0  0
  6  2  1  0  0  0  0
  7  3  1  0  0  0  0
  8  6  1  0  0  0  0
  9  1  1  0  0  0  0
 10  7  1  0  0  0  0
 11  4  1  0  0  0  0
 12  9  1  0  0  0  0
 13  8  2  0  0  0  0
 14  7  2  0  0  0  0
 15  6  1  0  0  0  0
 16  9  1  0  0  0  0
 17 11  1  0  0  0  0
 18 12  1  0  0  0  0
 19 20  1  0  0  0  0
 20 16  1  0  0  0  0
 11 12  2  0  0  0  0
  3  2  2  0  0  0  0
  8 10  1  0  0  0  0
M  END
>  <Code> (P1441851)
P1441851

>  <Number of H-Donors> (P1441851)
2

>  <Number of H-Acceptors> (P1441851)
4

>  <Number of Rotatable bonds> (P1441851)
2

>  <CLogP> (P1441851)
-3.000000000000000e-001

>  <Number of Rings> (P1441851)
3

>  <PSA> (P1441851)
9.190000000000001e+001

$$$$

  -ISIS-  11102212342D

 21 23  0  0  0  0  0  0  0  0999 V2000
    6.8292   -5.9000    0.0000 C   0  0  0  0  0  0  0  0  0  0  0  0
    5.4125   -5.9000    0.0000 C   0  0  0  0  0  0  0  0  0  0  0  0
    5.4125   -5.1042    0.0000 C   0  0  0  0  0  0  0  0  0  0  0  0
    6.8167   -5.0917    0.0000 N   0  0  3  0  0  0  0  0  0  0  0  0
    6.1250   -6.2917    0.0000 N   0  0  0  0  0  0  0  0  0  0  0  0
    4.7167   -6.3042    0.0000 N   0  0  3  0  0  0  0  0  0  0  0  0
    4.7167   -4.6750    0.0000 C   0  0  0  0  0  0  0  0  0  0  0  0
    4.0167   -5.9000    0.0000 C   0  0  0  0  0  0  0  0  0  0  0  0
    7.5375   -6.2917    0.0000 N   0  0  3  0  0  0  0  0  0  0  0  0
    4.0167   -5.0667    0.0000 N   0  0  0  0  0  0  0  0  0  0  0  0
    8.2292   -5.0792    0.0000 C   0  0  0  0  0  0  0  0  0  0  0  0
    8.2292   -5.8875    0.0000 C   0  0  0  0  0  0  0  0  0  0  0  0
    3.2917   -6.3417    0.0000 O   0  0  0  0  0  0  0  0  0  0  0  0
    4.7167   -3.8625    0.0000 O   0  0  0  0  0  0  0  0  0  0  0  0
    4.7167   -7.1167    0.0000 C   0  0  0  0  0  0  0  0  0  0  0  0
    7.1167   -7.0292    0.0000 C   0  0  0  0  0  0  0  0  0  0  0  0
    8.8167   -4.4750    0.0000 C   0  0  0  0  0  0  0  0  0  0  0  0
    8.9625   -6.3042    0.0000 C   0  0  0  0  0  0  0  0  0  0  0  0
    7.5417   -7.7542    0.0000 C   0  0  0  0  0  0  0  0  0  0  0  0
    7.5417   -9.2167    0.0000 O   0  0  0  0  0  0  0  0  0  0  0  0
    7.1167   -8.4875    0.0000 C   0  0  0  0  0  0  0  0  0  0  0  0
  2  5  1  0  0  0  0
  3  4  1  0  0  0  0
  4  1  1  0  0  0  0
  5  1  2  0  0  0  0
  6  2  1  0  0  0  0
  7  3  1  0  0  0  0
  8  6  1  0  0  0  0
  9  1  1  0  0  0  0
 10  7  1  0  0  0  0
 11  4  1  0  0  0  0
 12  9  1  0  0  0  0
 13  8  2  0  0  0  0
 14  7  2  0  0  0  0
 15  6  1  0  0  0  0
 16  9  1  0  0  0  0
 17 11  1  0  0  0  0
 18 12  1  0  0  0  0
 19 16  1  0  0  0  0
 20 21  1  0  0  0  0
 21 19  1  0  0  0  0
 12 11  2  0  0  0  0
  2  3  2  0  0  0  0
 10  8  1  0  0  0  0
M  END
>  <Code> (P1441797)
P1441797

>  <Number of H-Donors> (P1441797)
2

>  <Number of H-Acceptors> (P1441797)
4

>  <Number of Rotatable bonds> (P1441797)
3

>  <CLogP> (P1441797)
-2.000000000000000e-001

>  <Number of Rings> (P1441797)
3

>  <PSA> (P1441797)
9.190000000000001e+001

$$$$

  -ISIS-  11102212342D

 18 20  0  0  0  0  0  0  0  0999 V2000
    1.7667   -3.5667    0.0000 N   0  0  3  0  0  0  0  0  0  0  0  0
    3.1875   -3.5625    0.0000 C   0  0  0  0  0  0  0  0  0  0  0  0
    2.4792   -3.9750    0.0000 C   0  0  0  0  0  0  0  0  0  0  0  0
    3.1792   -2.7417    0.0000 C   0  0  0  0  0  0  0  0  0  0  0  0
    3.8917   -3.9792    0.0000 C   0  0  0  0  0  0  0  0  0  0  0  0
    1.0542   -3.9875    0.0000 C   0  0  0  0  0  0  0  0  0  0  0  0
    2.4667   -2.3292    0.0000 C   0  0  0  0  0  0  0  0  0  0  0  0
    1.7625   -2.7500    0.0000 C   0  0  0  0  0  0  0  0  0  0  0  0
    3.8917   -2.3292    0.0000 C   0  0  0  0  0  0  0  0  0  0  0  0
    4.6125   -3.5667    0.0000 C   0  0  0  0  0  0  0  0  0  0  0  0
    5.3250   -3.9875    0.0000 N   0  0  0  0  0  0  0  0  0  0  0  0
    4.6125   -2.7417    0.0000 C   0  0  0  0  0  0  0  0  0  0  0  0
    0.3375   -3.5792    0.0000 C   0  0  0  0  0  0  0  0  0  0  0  0
   -0.3750   -4.0000    0.0000 C   0  0  0  0  0  0  0  0  0  0  0  0
    0.3292   -2.7542    0.0000 C   0  0  0  0  0  0  0  0  0  0  0  0
   -1.0958   -3.5917    0.0000 C   0  0  0  0  0  0  0  0  0  0  0  0
   -0.3833   -2.3500    0.0000 C   0  0  0  0  0  0  0  0  0  0  0  0
   -1.0958   -2.7625    0.0000 C   0  0  0  0  0  0  0  0  0  0  0  0
  2  3  1  0  0  0  0
  3  1  1  0  0  0  0
  4  7  1  0  0  0  0
  5  2  1  0  0  0  0
  6  1  1  0  0  0  0
  7  8  1  0  0  0  0
  8  1  1  0  0  0  0
  9  4  1  0  0  0  0
 10  5  2  0  0  0  0
 11 10  1  0  0  0  0
 12  9  2  0  0  0  0
 13  6  1  0  0  0  0
 14 13  2  0  0  0  0
 15 13  1  0  0  0  0
 16 14  1  0  0  0  0
 17 15  2  0  0  0  0
 18 17  1  0  0  0  0
  4  2  2  0  0  0  0
 12 10  1  0  0  0  0
 18 16  2  0  0  0  0
M  END
>  <Code> (P1394643)
P1394643

>  <Number of H-Donors> (P1394643)
1

>  <Number of H-Acceptors> (P1394643)
2

>  <Number of Rotatable bonds> (P1394643)
2

>  <CLogP> (P1394643)
2.800000000000000e+000

>  <Number of Rings> (P1394643)
3

>  <PSA> (P1394643)
2.930000000000000e+001

$$$$

  -ISIS-  11102212342D

 27 30  0  0  0  0  0  0  0  0999 V2000
    3.1792   -4.9042    0.0000 C   0  0  0  0  0  0  0  0  0  0  0  0
    3.5125   -5.6667    0.0000 C   0  0  0  0  0  0  0  0  0  0  0  0
    3.6750   -4.2417    0.0000 C   0  0  0  0  0  0  0  0  0  0  0  0
    4.3292   -5.7542    0.0000 N   0  0  0  0  0  0  0  0  0  0  0  0
    4.4917   -4.3292    0.0000 N   0  0  0  0  0  0  0  0  0  0  0  0
    2.8917   -6.2042    0.0000 S   0  0  0  0  0  0  0  0  0  0  0  0
    3.3417   -3.4875    0.0000 N   0  0  3  0  0  0  0  0  0  0  0  0
    2.3500   -1.2250    0.0000 C   0  0  0  0  0  0  0  0  0  0  0  0
    2.6875   -1.9792    0.0000 N   0  0  3  0  0  0  0  0  0  0  0  0
    2.3625   -4.9917    0.0000 C   0  0  0  0  0  0  0  0  0  0  0  0
    4.8167   -5.0917    0.0000 C   0  0  0  0  0  0  0  0  0  0  0  0
    2.1875   -5.7917    0.0000 C   0  0  0  0  0  0  0  0  0  0  0  0
    1.5250   -1.1375    0.0000 C   0  0  0  0  0  0  0  0  0  0  0  0
    3.8292   -2.8250    0.0000 C   0  0  0  0  0  0  0  0  0  0  0  0
    2.5250   -3.4000    0.0000 C   0  0  0  0  0  0  0  0  0  0  0  0
    3.5000   -2.0667    0.0000 C   0  0  0  0  0  0  0  0  0  0  0  0
    2.1875   -2.6500    0.0000 C   0  0  0  0  0  0  0  0  0  0  0  0
    2.8375   -0.5625    0.0000 O   0  0  0  0  0  0  0  0  0  0  0  0
    1.0417   -1.8042    0.0000 C   0  0  0  0  0  0  0  0  0  0  0  0
    1.2000   -0.3792    0.0000 C   0  0  0  0  0  0  0  0  0  0  0  0
    0.3750   -0.2875    0.0000 C   0  0  0  0  0  0  0  0  0  0  0  0
    0.2250   -1.7167    0.0000 C   0  0  0  0  0  0  0  0  0  0  0  0
   -0.1083   -0.9542    0.0000 C   0  0  0  0  0  0  0  0  0  0  0  0
    1.4250   -6.1292    0.0000 C   0  0  0  0  0  0  0  0  0  0  0  0
    5.6417   -5.1917    0.0000 C   0  0  0  0  0  0  0  0  0  0  0  0
   -0.9333   -0.8667    0.0000 C   0  0  0  0  0  0  0  0  0  0  0  0
    0.7625   -5.6292    0.0000 C   0  0  0  0  0  0  0  0  0  0  0  0
  2  1  2  0  0  0  0
  3  1  1  0  0  0  0
  4  2  1  0  0  0  0
  5  3  2  0  0  0  0
  6  2  1  0  0  0  0
  7  3  1  0  0  0  0
  8  9  1  0  0  0  0
  9 17  1  0  0  0  0
 10  1  1  0  0  0  0
 11  5  1  0  0  0  0
 12 10  2  0  0  0  0
 13  8  1  0  0  0  0
 14  7  1  0  0  0  0
 15  7  1  0  0  0  0
 16 14  1  0  0  0  0
 17 15  1  0  0  0  0
 18  8  2  0  0  0  0
 19 13  1  0  0  0  0
 20 13  2  0  0  0  0
 21 20  1  0  0  0  0
 22 19  2  0  0  0  0
 23 21  2  0  0  0  0
 24 12  1  0  0  0  0
 25 11  1  0  0  0  0
 26 23  1  0  0  0  0
 27 24  1  0  0  0  0
 12  6  1  0  0  0  0
  4 11  2  0  0  0  0
 16  9  1  0  0  0  0
 23 22  1  0  0  0  0
M  END
>  <Code> (P1342798)
P1342798

>  <Number of H-Donors> (P1342798)
0

>  <Number of H-Acceptors> (P1342798)
4

>  <Number of Rotatable bonds> (P1342798)
3

>  <CLogP> (P1342798)
3.300000000000000e+000

>  <Number of Rings> (P1342798)
4

>  <PSA> (P1342798)
7.759999999999999e+001

$$$$

  -ISIS-  11102212342D

 19 21  0  0  0  0  0  0  0  0999 V2000
    6.0417   -5.9292    0.0000 C   0  0  0  0  0  0  0  0  0  0  0  0
    6.3792   -5.1792    0.0000 N   0  0  0  0  0  0  0  0  0  0  0  0
    5.2250   -5.8500    0.0000 C   0  0  0  0  0  0  0  0  0  0  0  0
    5.0542   -5.0417    0.0000 N   0  0  3  0  0  0  0  0  0  0  0  0
    5.7625   -4.6292    0.0000 C   0  0  0  0  0  0  0  0  0  0  0  0
    6.4542   -6.6417    0.0000 C   0  0  0  0  0  0  0  0  0  0  0  0
    7.2792   -6.6417    0.0000 C   0  0  0  0  0  0  0  0  0  0  0  0
    6.0500   -7.3542    0.0000 C   0  0  0  0  0  0  0  0  0  0  0  0
    7.7000   -7.3500    0.0000 C   0  0  0  0  0  0  0  0  0  0  0  0
    4.3292   -4.6292    0.0000 C   0  0  0  0  0  0  0  0  0  0  0  0
    5.7625   -3.8042    0.0000 C   0  0  0  0  0  0  0  0  0  0  0  0
    4.3292   -3.8042    0.0000 C   0  0  0  0  0  0  0  0  0  0  0  0
    5.0417   -3.3917    0.0000 C   0  0  0  0  0  0  0  0  0  0  0  0
    7.2875   -8.0667    0.0000 C   0  0  0  0  0  0  0  0  0  0  0  0
    4.6750   -6.4667    0.0000 C   0  0  0  0  0  0  0  0  0  0  0  0
    7.6875   -5.9167    0.0000 Cl  0  0  0  0  0  0  0  0  0  0  0  0
    6.4625   -8.0667    0.0000 C   0  0  0  0  0  0  0  0  0  0  0  0
    7.7042   -8.7792    0.0000 Cl  0  0  0  0  0  0  0  0  0  0  0  0
    3.8667   -6.2917    0.0000 O   0  0  0  0  0  0  0  0  0  0  0  0
  2  1  1  0  0  0  0
  3  1  2  0  0  0  0
  4  3  1  0  0  0  0
  5  2  2  0  0  0  0
  6  1  1  0  0  0  0
  7  6  1  0  0  0  0
  8  6  2  0  0  0  0
  9  7  2  0  0  0  0
 10  4  1  0  0  0  0
 11  5  1  0  0  0  0
 12 10  2  0  0  0  0
 13 11  2  0  0  0  0
 14 17  2  0  0  0  0
 15  3  1  0  0  0  0
 16  7  1  0  0  0  0
 17  8  1  0  0  0  0
 18 14  1  0  0  0  0
 19 15  1  0  0  0  0
  4  5  1  0  0  0  0
 14  9  1  0  0  0  0
 12 13  1  0  0  0  0
M  END
>  <Code> (P1318897)
P1318897

>  <Number of H-Donors> (P1318897)
1

>  <Number of H-Acceptors> (P1318897)
2

>  <Number of Rotatable bonds> (P1318897)
2

>  <CLogP> (P1318897)
3.500000000000000e+000

>  <Number of Rings> (P1318897)
3

>  <PSA> (P1318897)
3.750000000000000e+001

$$$$

  -ISIS-  11102212342D

 24 23  0  0  0  0  0  0  0  0999 V2000
    5.4542   -9.4167    0.0000 C   0  0  0  0  0  0  0  0  0  0  0  0
    6.2042   -9.0792    0.0000 N   0  0  3  0  0  0  0  0  0  0  0  0
    5.5417  -10.2292    0.0000 C   0  0  0  0  0  0  0  0  0  0  0  0
    6.3417  -10.4042    0.0000 N   0  0  0  0  0  0  0  0  0  0  0  0
    6.7542   -9.6917    0.0000 C   0  0  0  0  0  0  0  0  0  0  0  0
    6.4542   -8.2917    0.0000 C   0  0  0  0  0  0  0  0  0  0  0  0
    4.9292  -10.7917    0.0000 C   0  0  0  0  0  0  0  0  0  0  0  0
    7.5667   -9.5167    0.0000 C   0  0  0  0  0  0  0  0  0  0  0  0
    4.7417   -8.9917    0.0000 C   0  0  0  0  0  0  0  0  0  0  0  0
    7.2667   -8.1167    0.0000 C   0  0  0  0  0  0  0  0  0  0  0  0
    7.8167   -8.7292    0.0000 C   0  0  0  0  0  0  0  0  0  0  0  0
    5.1042  -11.5917    0.0000 C   0  0  0  0  0  0  0  0  0  0  0  0
    4.7417   -8.1792    0.0000 N   0  0  3  0  0  0  0  0  0  0  0  0
    4.4917  -12.1417    0.0000 C   0  0  0  0  0  0  0  0  0  0  0  0
    4.6667  -12.9542    0.0000 N   0  0  0  0  0  0  0  0  0  0  0  0
    8.7167   -8.1500    0.0000 Cl  0  0  0  0  0  0  0  0  0  0  0  0
    8.7167   -8.9625    0.0000 Cl  0  0  0  0  0  0  0  0  0  0  0  0
    8.7167   -9.7667    0.0000 Cl  0  0  0  0  0  0  0  0  0  0  0  0
    4.1500  -10.5292    0.0000 C   0  0  0  0  0  0  0  0  0  0  0  0
    3.5292  -11.0792    0.0000 C   0  0  0  0  0  0  0  0  0  0  0  0
    7.5167   -7.3292    0.0000 C   0  0  0  0  0  0  0  0  0  0  0  0
    3.7000  -11.8917    0.0000 C   0  0  0  0  0  0  0  0  0  0  0  0
    4.0292   -7.7667    0.0000 C   0  0  0  0  0  0  0  0  0  0  0  0
    5.4542   -7.7667    0.0000 C   0  0  0  0  0  0  0  0  0  0  0  0
  2  1  1  0  0  0  0
  3  1  2  0  0  0  0
  4  3  1  0  0  0  0
  5  2  1  0  0  0  0
  6  2  1  0  0  0  0
  7  3  1  0  0  0  0
  8  5  1  0  0  0  0
  9  1  1  0  0  0  0
 10  6  2  0  0  0  0
 11 10  1  0  0  0  0
 12  7  1  0  0  0  0
 13  9  1  0  0  0  0
 14 12  2  0  0  0  0
 15 14  1  0  0  0  0
 19  7  2  0  0  0  0
 20 19  1  0  0  0  0
 21 10  1  0  0  0  0
 22 20  2  0  0  0  0
 23 13  1  0  0  0  0
 24 13  1  0  0  0  0
  4  5  2  0  0  0  0
  8 11  2  0  0  0  0
 14 22  1  0  0  0  0
M  END
>  <Code> (P1317529)
P1317529

>  <Saltdata> (P1317529)
3 HCl

>  <Number of H-Donors> (P1317529)
1

>  <Number of H-Acceptors> (P1317529)
3

>  <Number of Rotatable bonds> (P1317529)
3

>  <CLogP> (P1317529)
3.700000000000000e+000

>  <Number of Rings> (P1317529)
3

>  <PSA> (P1317529)
4.659999999999999e+001

$$$$

  -ISIS-  11102212342D

 14 15  0  0  0  0  0  0  0  0999 V2000
    5.9542   -6.3542    0.0000 C   0  0  0  0  0  0  0  0  0  0  0  0
    6.2917   -5.6042    0.0000 N   0  0  0  0  0  0  0  0  0  0  0  0
    4.9750   -5.4667    0.0000 N   0  0  3  0  0  0  0  0  0  0  0  0
    5.6792   -5.0625    0.0000 C   0  0  0  0  0  0  0  0  0  0  0  0
    5.1417   -6.2667    0.0000 C   0  0  0  0  0  0  0  0  0  0  0  0
    6.3667   -7.0667    0.0000 C   0  0  0  0  0  0  0  0  0  0  0  0
    4.2625   -5.0625    0.0000 C   0  0  0  0  0  0  0  0  0  0  0  0
    5.6792   -4.2375    0.0000 C   0  0  0  0  0  0  0  0  0  0  0  0
    7.1917   -7.0667    0.0000 O   0  0  0  0  0  0  0  0  0  0  0  0
    4.2625   -4.2375    0.0000 C   0  0  0  0  0  0  0  0  0  0  0  0
    4.9667   -3.8167    0.0000 C   0  0  0  0  0  0  0  0  0  0  0  0
    5.9500   -7.7792    0.0000 O   0  0  0  0  0  0  0  0  0  0  0  0
    5.1250   -7.7792    0.0000 C   0  0  0  0  0  0  0  0  0  0  0  0
    4.7125   -8.4917    0.0000 C   0  0  0  0  0  0  0  0  0  0  0  0
  2  1  1  0  0  0  0
  3  5  1  0  0  0  0
  4  2  2  0  0  0  0
  5  1  2  0  0  0  0
  6  1  1  0  0  0  0
  7  3  1  0  0  0  0
  8  4  1  0  0  0  0
  9  6  2  0  0  0  0
 10  7  2  0  0  0  0
 11  8  2  0  0  0  0
 12  6  1  0  0  0  0
 13 12  1  0  0  0  0
 14 13  1  0  0  0  0
  3  4  1  0  0  0  0
 11 10  1  0  0  0  0
M  END
>  <Code> (P1314086)
P1314086

>  <Number of H-Donors> (P1314086)
0

>  <Number of H-Acceptors> (P1314086)
3

>  <Number of Rotatable bonds> (P1314086)
3

>  <CLogP> (P1314086)
1.200000000000000e+000

>  <Number of Rings> (P1314086)
2

>  <PSA> (P1314086)
4.359999999999999e+001

$$$$

  -ISIS-  11102212342D

 29 32  0  0  0  0  0  0  0  0999 V2000
    0.3042    0.4958    0.0000 C   0  0  0  0  0  0  0  0  0  0  0  0
    0.2167   -0.3167    0.0000 N   0  0  0  0  0  0  0  0  0  0  0  0
   -0.4458    0.8250    0.0000 C   0  0  0  0  0  0  0  0  0  0  0  0
   -1.0000    0.2208    0.0000 C   0  0  0  0  0  0  0  0  0  0  0  0
   -0.5958   -0.4917    0.0000 O   0  0  0  0  0  0  0  0  0  0  0  0
    1.0292    0.9083    0.0000 C   0  0  0  0  0  0  0  0  0  0  0  0
   -1.8208    0.3208    0.0000 C   0  0  0  0  0  0  0  0  0  0  0  0
    1.7417    0.4833    0.0000 N   0  0  0  0  0  0  0  0  0  0  0  0
   -2.1458    1.0625    0.0000 C   0  0  0  0  0  0  0  0  0  0  0  0
    1.7292   -0.3417    0.0000 C   0  0  0  0  0  0  0  0  0  0  0  0
    2.4417   -0.7625    0.0000 C   0  0  3  0  0  0  0  0  0  0  0  0
   -2.9583    1.1625    0.0000 C   0  0  0  0  0  0  0  0  0  0  0  0
    2.4417   -1.5875    0.0000 N   0  0  3  0  0  0  0  0  0  0  0  0
   -3.4583    0.4958    0.0000 C   0  0  0  0  0  0  0  0  0  0  0  0
    1.0292    1.7333    0.0000 O   0  0  0  0  0  0  0  0  0  0  0  0
   -2.2958   -0.3500    0.0000 C   0  0  0  0  0  0  0  0  0  0  0  0
   -3.1125   -0.2667    0.0000 C   0  0  0  0  0  0  0  0  0  0  0  0
    3.1667   -0.3500    0.0000 C   0  0  0  0  0  0  0  0  0  0  0  0
   -3.2958    1.9208    0.0000 C   0  0  0  0  0  0  0  0  0  0  0  0
    1.7292   -2.0000    0.0000 C   0  0  0  0  0  0  0  0  0  0  0  0
    3.1542   -2.0000    0.0000 C   0  0  0  0  0  0  0  0  0  0  0  0
   -4.2708    0.5750    0.0000 C   0  0  0  0  0  0  0  0  0  0  0  0
    3.1667    0.4625    0.0000 C   0  0  0  0  0  0  0  0  0  0  0  0
    3.8667   -0.7750    0.0000 C   0  0  0  0  0  0  0  0  0  0  0  0
   -4.1208    2.0083    0.0000 C   0  0  0  0  0  0  0  0  0  0  0  0
   -4.6083    1.3375    0.0000 C   0  0  0  0  0  0  0  0  0  0  0  0
    4.5917   -0.3625    0.0000 C   0  0  0  0  0  0  0  0  0  0  0  0
    3.8792    0.8750    0.0000 C   0  0  0  0  0  0  0  0  0  0  0  0
    4.5917    0.4625    0.0000 C   0  0  0  0  0  0  0  0  0  0  0  0
  2  1  2  0  0  0  0
  3  1  1  0  0  0  0
  4  3  2  0  0  0  0
  5  2  1  0  0  0  0
  6  1  1  0  0  0  0
  7  4  1  0  0  0  0
  8  6  1  0  0  0  0
  9  7  2  0  0  0  0
 10  8  1  0  0  0  0
 11 10  1  0  0  0  0
 12  9  1  0  0  0  0
 13 11  1  0  0  0  0
 14 17  1  0  0  0  0
 15  6  2  0  0  0  0
 16  7  1  0  0  0  0
 17 16  2  0  0  0  0
 18 11  1  0  0  0  0
 19 12  1  0  0  0  0
 20 13  1  0  0  0  0
 21 13  1  0  0  0  0
 22 14  1  0  0  0  0
 23 18  1  0  0  0  0
 24 18  2  0  0  0  0
 25 19  1  0  0  0  0
 26 22  1  0  0  0  0
 27 24  1  0  0  0  0
 28 23  2  0  0  0  0
 29 27  2  0  0  0  0
  5  4  1  0  0  0  0
 12 14  2  0  0  0  0
 29 28  1  0  0  0  0
 26 25  1  0  0  0  0
M  END
>  <Code> (P1310448)
P1310448

>  <Number of H-Donors> (P1310448)
1

>  <Number of H-Acceptors> (P1310448)
3

>  <Number of Rotatable bonds> (P1310448)
6

>  <CLogP> (P1310448)
5.000000000000000e+000

>  <Number of Rings> (P1310448)
4

>  <PSA> (P1310448)
5.840000000000000e+001

$$$$

  -ISIS-  11102212342D

 28 31  0  0  0  0  0  0  0  0999 V2000
    2.9167   -1.6292    0.0000 C   0  0  0  0  0  0  0  0  0  0  0  0
    3.4250   -2.3125    0.0000 C   0  0  0  0  0  0  0  0  0  0  0  0
    2.6042   -0.2417    0.0000 S   0  0  3  0  0  0  0  0  0  0  0  0
    3.1625   -0.8417    0.0000 N   0  0  0  0  0  0  0  0  0  0  0  0
    2.9375   -2.9875    0.0000 O   0  0  0  0  0  0  0  0  0  0  0  0
    2.1417   -1.9000    0.0000 C   0  0  0  0  0  0  0  0  0  0  0  0
    4.2500   -2.3042    0.0000 C   0  0  0  0  0  0  0  0  0  0  0  0
    2.1500   -2.7250    0.0000 C   0  0  0  0  0  0  0  0  0  0  0  0
    3.2000    0.3333    0.0000 O   0  0  0  0  0  0  0  0  0  0  0  0
    2.0167   -0.8125    0.0000 O   0  0  0  0  0  0  0  0  0  0  0  0
    2.0167    0.3458    0.0000 C   0  0  0  0  0  0  0  0  0  0  0  0
    4.6625   -3.0167    0.0000 C   0  0  0  0  0  0  0  0  0  0  0  0
    4.6500   -1.5875    0.0000 O   0  0  0  0  0  0  0  0  0  0  0  0
    5.4875   -3.0042    0.0000 C   0  0  0  0  0  0  0  0  0  0  0  0
    4.2500   -3.7292    0.0000 C   0  0  0  0  0  0  0  0  0  0  0  0
    4.6667   -4.4375    0.0000 C   0  0  0  0  0  0  0  0  0  0  0  0
    5.9000   -3.7125    0.0000 C   0  0  0  0  0  0  0  0  0  0  0  0
    5.4917   -4.4375    0.0000 C   0  0  0  0  0  0  0  0  0  0  0  0
    1.4250   -1.4875    0.0000 C   0  0  0  0  0  0  0  0  0  0  0  0
    1.4250   -3.1375    0.0000 C   0  0  0  0  0  0  0  0  0  0  0  0
    2.2292    1.1500    0.0000 C   0  0  0  0  0  0  0  0  0  0  0  0
    1.2167    0.1250    0.0000 C   0  0  0  0  0  0  0  0  0  0  0  0
    5.9125   -5.1500    0.0000 C   0  0  0  0  0  0  0  0  0  0  0  0
    0.7125   -1.9000    0.0000 C   0  0  0  0  0  0  0  0  0  0  0  0
    0.7125   -2.7250    0.0000 C   0  0  0  0  0  0  0  0  0  0  0  0
    0.6250    0.7083    0.0000 C   0  0  0  0  0  0  0  0  0  0  0  0
    1.6417    1.7375    0.0000 C   0  0  0  0  0  0  0  0  0  0  0  0
    0.8375    1.5208    0.0000 C   0  0  0  0  0  0  0  0  0  0  0  0
  2  1  2  0  0  0  0
  3  4  1  0  0  0  0
  4  1  1  0  0  0  0
  5  2  1  0  0  0  0
  6  1  1  0  0  0  0
  7  2  1  0  0  0  0
  8  6  1  0  0  0  0
  9  3  2  0  0  0  0
 10  3  2  0  0  0  0
 11  3  1  0  0  0  0
 12  7  1  0  0  0  0
 13  7  2  0  0  0  0
 14 12  1  0  0  0  0
 15 12  2  0  0  0  0
 16 15  1  0  0  0  0
 17 14  2  0  0  0  0
 18 16  2  0  0  0  0
 19  6  2  0  0  0  0
 20  8  2  0  0  0  0
 21 11  2  0  0  0  0
 22 11  1  0  0  0  0
 23 18  1  0  0  0  0
 24 19  1  0  0  0  0
 25 24  2  0  0  0  0
 26 22  2  0  0  0  0
 27 21  1  0  0  0  0
 28 26  1  0  0  0  0
  8  5  1  0  0  0  0
 20 25  1  0  0  0  0
 27 28  2  0  0  0  0
 18 17  1  0  0  0  0
M  END
>  <Code> (P1308874)
P1308874

>  <Number of H-Donors> (P1308874)
1

>  <Number of H-Acceptors> (P1308874)
3

>  <Number of Rotatable bonds> (P1308874)
5

>  <CLogP> (P1308874)
4.800000000000000e+000

>  <Number of Rings> (P1308874)
4

>  <PSA> (P1308874)
8.480000000000001e+001

$$$$

  -ISIS-  11102212342D

 25 27  0  0  0  0  0  0  0  0999 V2000
    3.2875   -1.1500    0.0000 C   0  0  0  0  0  0  0  0  0  0  0  0
    2.4792   -1.1625    0.0000 C   0  0  0  0  0  0  0  0  0  0  0  0
    3.5625   -1.9375    0.0000 N   0  0  0  0  0  0  0  0  0  0  0  0
    3.7625   -0.4667    0.0000 N   0  0  0  0  0  0  0  0  0  0  0  0
    2.2375   -1.9500    0.0000 N   0  0  0  0  0  0  0  0  0  0  0  0
    2.9125   -2.4250    0.0000 O   0  0  0  0  0  0  0  0  0  0  0  0
    4.5792   -0.5375    0.0000 C   0  0  0  0  0  0  0  0  0  0  0  0
    1.9792   -0.5125    0.0000 C   0  0  0  0  0  0  0  0  0  0  0  0
    5.0500    0.1333    0.0000 C   0  0  0  0  0  0  0  0  0  0  0  0
    4.9375   -1.2792    0.0000 O   0  0  0  0  0  0  0  0  0  0  0  0
    2.3000    0.2458    0.0000 C   0  0  0  0  0  0  0  0  0  0  0  0
    1.1625   -0.6125    0.0000 C   0  0  0  0  0  0  0  0  0  0  0  0
    5.8750    0.0625    0.0000 C   0  0  0  0  0  0  0  0  0  0  0  0
    4.7000    0.8750    0.0000 C   0  0  0  0  0  0  0  0  0  0  0  0
    6.6917    3.4958    0.0000 C   0  0  0  0  0  0  0  0  0  0  0  0
    6.4667    4.2750    0.0000 C   0  0  0  0  0  0  0  0  0  0  0  0
    0.9875    0.8000    0.0000 C   0  0  0  0  0  0  0  0  0  0  0  0
    5.9917    1.4875    0.0000 C   0  0  0  0  0  0  0  0  0  0  0  0
    1.8042    0.9000    0.0000 C   0  0  0  0  0  0  0  0  0  0  0  0
    0.6625    0.0333    0.0000 C   0  0  0  0  0  0  0  0  0  0  0  0
    5.1625    1.5583    0.0000 C   0  0  0  0  0  0  0  0  0  0  0  0
    6.3417    0.7375    0.0000 C   0  0  0  0  0  0  0  0  0  0  0  0
    0.4875    1.4583    0.0000 F   0  0  0  0  0  0  0  0  0  0  0  0
    6.4625    2.1625    0.0000 O   0  0  0  0  0  0  0  0  0  0  0  0
    6.1125    2.9083    0.0000 C   0  0  0  0  0  0  0  0  0  0  0  0
  2  1  1  0  0  0  0
  3  1  2  0  0  0  0
  4  1  1  0  0  0  0
  5  2  2  0  0  0  0
  6  3  1  0  0  0  0
  7  4  1  0  0  0  0
  8  2  1  0  0  0  0
  9  7  1  0  0  0  0
 10  7  2  0  0  0  0
 11  8  2  0  0  0  0
 12  8  1  0  0  0  0
 13  9  2  0  0  0  0
 14  9  1  0  0  0  0
 15 25  1  0  0  0  0
 16 15  2  0  0  0  0
 17 20  1  0  0  0  0
 18 21  1  0  0  0  0
 19 11  1  0  0  0  0
 20 12  2  0  0  0  0
 21 14  2  0  0  0  0
 22 13  1  0  0  0  0
 23 17  1  0  0  0  0
 24 18  1  0  0  0  0
 25 24  1  0  0  0  0
  5  6  1  0  0  0  0
 19 17  2  0  0  0  0
 22 18  2  0  0  0  0
M  END
>  <Code> (P1307862)
P1307862

>  <Number of H-Donors> (P1307862)
1

>  <Number of H-Acceptors> (P1307862)
4

>  <Number of Rotatable bonds> (P1307862)
6

>  <CLogP> (P1307862)
3.700000000000000e+000

>  <Number of Rings> (P1307862)
3

>  <PSA> (P1307862)
7.730000000000001e+001

$$$$

  -ISIS-  11102212342D

 30 33  0  0  0  0  0  0  0  0999 V2000
   -0.7875   -0.1417    0.0000 C   0  0  0  0  0  0  0  0  0  0  0  0
   -0.3583    0.5458    0.0000 C   0  0  0  0  0  0  0  0  0  0  0  0
   -1.6125   -0.1125    0.0000 C   0  0  0  0  0  0  0  0  0  0  0  0
   -0.4083   -0.8750    0.0000 O   0  0  0  0  0  0  0  0  0  0  0  0
    0.4000   -0.9125    0.0000 C   0  0  0  0  0  0  0  0  0  0  0  0
   -1.9958    0.6083    0.0000 N   0  0  3  0  0  0  0  0  0  0  0  0
    0.4667    0.5125    0.0000 C   0  0  0  0  0  0  0  0  0  0  0  0
    0.8417   -0.2125    0.0000 C   0  0  0  0  0  0  0  0  0  0  0  0
    0.7875   -1.6375    0.0000 C   0  0  0  0  0  0  0  0  0  0  0  0
   -1.9583    2.0458    0.0000 C   0  0  0  0  0  0  0  0  0  0  0  0
   -1.5625    1.3208    0.0000 C   0  0  0  0  0  0  0  0  0  0  0  0
    1.6750   -0.2500    0.0000 C   0  0  0  0  0  0  0  0  0  0  0  0
   -2.8208    0.6375    0.0000 C   0  0  0  0  0  0  0  0  0  0  0  0
   -2.7833    2.1458    0.0000 O   0  0  0  0  0  0  0  0  0  0  0  0
   -2.0500   -0.8125    0.0000 O   0  0  0  0  0  0  0  0  0  0  0  0
    0.9125    1.2125    0.0000 O   0  0  0  0  0  0  0  0  0  0  0  0
   -1.6000    2.8000    0.0000 C   0  0  0  0  0  0  0  0  0  0  0  0
   -2.9250    2.9625    0.0000 C   0  0  0  0  0  0  0  0  0  0  0  0
   -2.2000    3.3583    0.0000 C   0  0  0  0  0  0  0  0  0  0  0  0
    1.6125   -1.6750    0.0000 C   0  0  0  0  0  0  0  0  0  0  0  0
   -3.2625   -0.0542    0.0000 C   0  0  0  0  0  0  0  0  0  0  0  0
    2.0625   -0.9750    0.0000 C   0  0  0  0  0  0  0  0  0  0  0  0
   -4.1458   -1.4500    0.0000 C   0  0  0  0  0  0  0  0  0  0  0  0
    1.9875   -2.4125    0.0000 Br  0  0  0  0  0  0  0  0  0  0  0  0
   -2.8750   -0.7792    0.0000 C   0  0  0  0  0  0  0  0  0  0  0  0
   -4.0833   -0.0292    0.0000 C   0  0  0  0  0  0  0  0  0  0  0  0
   -4.5333   -0.7167    0.0000 C   0  0  0  0  0  0  0  0  0  0  0  0
   -3.3125   -1.4750    0.0000 C   0  0  0  0  0  0  0  0  0  0  0  0
   -4.5833   -2.1500    0.0000 O   0  0  0  0  0  0  0  0  0  0  0  0
   -4.1958   -2.8750    0.0000 C   0  0  0  0  0  0  0  0  0  0  0  0
  2  1  2  0  0  0  0
  3  1  1  0  0  0  0
  4  1  1  0  0  0  0
  5  4  1  0  0  0  0
  6  3  1  0  0  0  0
  7  2  1  0  0  0  0
  8  5  2  0  0  0  0
  9  5  1  0  0  0  0
 10 11  1  0  0  0  0
 11  6  1  0  0  0  0
 12  8  1  0  0  0  0
 13  6  1  0  0  0  0
 14 10  1  0  0  0  0
 15  3  2  0  0  0  0
 16  7  2  0  0  0  0
 17 10  2  0  0  0  0
 18 14  1  0  0  0  0
 19 17  1  0  0  0  0
 20  9  2  0  0  0  0
 21 13  1  0  0  0  0
 22 20  1  0  0  0  0
 23 27  2  0  0  0  0
 24 20  1  0  0  0  0
 25 21  1  0  0  0  0
 26 21  2  0  0  0  0
 27 26  1  0  0  0  0
 28 25  2  0  0  0  0
 29 23  1  0  0  0  0
 30 29  1  0  0  0  0
  7  8  1  0  0  0  0
 22 12  2  0  0  0  0
 28 23  1  0  0  0  0
 19 18  2  0  0  0  0
M  END
>  <Code> (P1307481)
P1307481

>  <Number of H-Donors> (P1307481)
0

>  <Number of H-Acceptors> (P1307481)
4

>  <Number of Rotatable bonds> (P1307481)
6

>  <CLogP> (P1307481)
4.100000000000000e+000

>  <Number of Rings> (P1307481)
4

>  <PSA> (P1307481)
6.900000000000000e+001

$$$$

  -ISIS-  11102212342D

 22 24  0  0  0  0  0  0  0  0999 V2000
   -0.2208    0.2708    0.0000 C   0  0  0  0  0  0  0  0  0  0  0  0
    0.1667    0.9875    0.0000 N   0  0  0  0  0  0  0  0  0  0  0  0
    0.3417   -0.3292    0.0000 C   0  0  0  0  0  0  0  0  0  0  0  0
    1.0917    0.0208    0.0000 C   0  0  0  0  0  0  0  0  0  0  0  0
   -1.0375    0.1583    0.0000 C   0  0  0  0  0  0  0  0  0  0  0  0
    0.9792    0.8333    0.0000 O   0  0  0  0  0  0  0  0  0  0  0  0
   -1.5333    0.8125    0.0000 N   0  0  0  0  0  0  0  0  0  0  0  0
    1.8167   -0.3792    0.0000 C   0  0  0  0  0  0  0  0  0  0  0  0
    2.5042    0.0583    0.0000 C   0  0  0  0  0  0  0  0  0  0  0  0
   -2.3583    0.8125    0.0000 C   0  0  0  0  0  0  0  0  0  0  0  0
    3.2417   -0.3292    0.0000 C   0  0  0  0  0  0  0  0  0  0  0  0
   -2.7625    1.5125    0.0000 N   0  0  0  0  0  0  0  0  0  0  0  0
   -1.3583   -0.5917    0.0000 O   0  0  0  0  0  0  0  0  0  0  0  0
    3.2625   -1.1542    0.0000 C   0  0  0  0  0  0  0  0  0  0  0  0
    1.8292   -1.2042    0.0000 C   0  0  0  0  0  0  0  0  0  0  0  0
    2.5625   -1.5917    0.0000 C   0  0  0  0  0  0  0  0  0  0  0  0
    3.9375    0.1000    0.0000 C   0  0  0  0  0  0  0  0  0  0  0  0
   -3.5875    1.5125    0.0000 C   0  0  0  0  0  0  0  0  0  0  0  0
   -2.7583    0.0958    0.0000 C   0  0  0  0  0  0  0  0  0  0  0  0
    3.9875   -1.5542    0.0000 C   0  0  0  0  0  0  0  0  0  0  0  0
   -4.0000    0.7958    0.0000 C   0  0  0  0  0  0  0  0  0  0  0  0
   -3.5875    0.0958    0.0000 C   0  0  0  0  0  0  0  0  0  0  0  0
  2  1  2  0  0  0  0
  3  1  1  0  0  0  0
  4  3  2  0  0  0  0
  5  1  1  0  0  0  0
  6  2  1  0  0  0  0
  7  5  1  0  0  0  0
  8  4  1  0  0  0  0
  9  8  1  0  0  0  0
 10  7  1  0  0  0  0
 11  9  2  0  0  0  0
 12 10  1  0  0  0  0
 13  5  2  0  0  0  0
 14 16  2  0  0  0  0
 15  8  2  0  0  0  0
 16 15  1  0  0  0  0
 17 11  1  0  0  0  0
 18 12  2  0  0  0  0
 19 10  2  0  0  0  0
 20 14  1  0  0  0  0
 21 22  2  0  0  0  0
 22 19  1  0  0  0  0
  4  6  1  0  0  0  0
 21 18  1  0  0  0  0
 11 14  1  0  0  0  0
M  END
>  <Code> (P1307477)
P1307477

>  <Number of H-Donors> (P1307477)
1

>  <Number of H-Acceptors> (P1307477)
3

>  <Number of Rotatable bonds> (P1307477)
3

>  <CLogP> (P1307477)
3.700000000000000e+000

>  <Number of Rings> (P1307477)
3

>  <PSA> (P1307477)
6.800000000000000e+001

$$$$

  -ISIS-  11102212342D

 22 25  0  0  0  0  0  0  0  0999 V2000
    0.7125   -1.0417    0.0000 N   0  0  3  0  0  0  0  0  0  0  0  0
    0.0000   -1.4625    0.0000 C   0  0  0  0  0  0  0  0  0  0  0  0
    0.7125   -0.2125    0.0000 N   0  0  0  0  0  0  0  0  0  0  0  0
   -0.0083    0.2000    0.0000 C   0  0  0  0  0  0  0  0  0  0  0  0
   -0.7208   -1.0500    0.0000 C   0  0  0  0  0  0  0  0  0  0  0  0
    0.1625   -2.2667    0.0000 N   0  0  0  0  0  0  0  0  0  0  0  0
    0.9917   -2.3542    0.0000 N   0  0  0  0  0  0  0  0  0  0  0  0
   -0.7208   -0.2125    0.0000 C   0  0  0  0  0  0  0  0  0  0  0  0
    1.3375   -1.6000    0.0000 C   0  0  0  0  0  0  0  0  0  0  0  0
    3.7500    0.0583    0.0000 N   0  0  0  0  0  0  0  0  0  0  0  0
    2.8292    1.0375    0.0000 N   0  0  3  0  0  0  0  0  0  0  0  0
    2.9292    0.2208    0.0000 C   0  0  0  0  0  0  0  0  0  0  0  0
    4.1417    0.7708    0.0000 C   0  0  0  0  0  0  0  0  0  0  0  0
    3.5875    1.3750    0.0000 C   0  0  0  0  0  0  0  0  0  0  0  0
   -0.0125    1.0250    0.0000 N   0  0  0  0  0  0  0  0  0  0  0  0
   -1.4375   -1.4625    0.0000 C   0  0  0  0  0  0  0  0  0  0  0  0
    2.1167    1.4458    0.0000 C   0  0  0  0  0  0  0  0  0  0  0  0
    1.4125    1.0333    0.0000 C   0  0  0  0  0  0  0  0  0  0  0  0
   -1.4375    0.1875    0.0000 C   0  0  0  0  0  0  0  0  0  0  0  0
    0.6917    1.4458    0.0000 C   0  0  0  0  0  0  0  0  0  0  0  0
   -2.1458   -1.0500    0.0000 C   0  0  0  0  0  0  0  0  0  0  0  0
   -2.1458   -0.2125    0.0000 C   0  0  0  0  0  0  0  0  0  0  0  0
  2  1  1  0  0  0  0
  3  1  1  0  0  0  0
  4  3  2  0  0  0  0
  5  2  1  0  0  0  0
  6  2  2  0  0  0  0
  7  9  2  0  0  0  0
  8  4  1  0  0  0  0
  9  1  1  0  0  0  0
 10 12  2  0  0  0  0
 11 17  1  0  0  0  0
 12 11  1  0  0  0  0
 13 14  2  0  0  0  0
 14 11  1  0  0  0  0
 15  4  1  0  0  0  0
 16  5  2  0  0  0  0
 17 18  1  0  0  0  0
 18 20  1  0  0  0  0
 19  8  2  0  0  0  0
 20 15  1  0  0  0  0
 21 16  1  0  0  0  0
 22 19  1  0  0  0  0
  6  7  1  0  0  0  0
  5  8  1  0  0  0  0
 21 22  2  0  0  0  0
 10 13  1  0  0  0  0
M  END
>  <Code> (P1307126)
P1307126

>  <Number of H-Donors> (P1307126)
1

>  <Number of H-Acceptors> (P1307126)
5

>  <Number of Rotatable bonds> (P1307126)
5

>  <CLogP> (P1307126)
7.000000000000000e-001

>  <Number of Rings> (P1307126)
4

>  <PSA> (P1307126)
7.290000000000001e+001

$$$$

  -ISIS-  11102212342D

 30 34  0  0  0  0  0  0  0  0999 V2000
    5.8292   -7.4292    0.0000 C   0  0  0  0  0  0  0  0  0  0  0  0
    5.6042   -6.7167    0.0000 C   0  0  0  0  0  0  0  0  0  0  0  0
    6.8125   -6.7375    0.0000 N   0  0  3  0  0  0  0  0  0  0  0  0
    4.8667   -6.7042    0.0000 C   0  0  0  0  0  0  0  0  0  0  0  0
    6.5750   -7.4417    0.0000 C   0  0  0  0  0  0  0  0  0  0  0  0
    6.2167   -6.2917    0.0000 C   0  0  3  0  0  0  0  0  0  0  0  0
    4.6250   -7.4042    0.0000 N   0  0  0  0  0  0  0  0  0  0  0  0
    5.2167   -7.8625    0.0000 N   0  0  0  0  0  0  0  0  0  0  0  0
    4.1292   -6.5417    0.0000 C   0  0  0  0  0  0  0  0  0  0  0  0
    6.2375   -5.5417    0.0000 C   0  0  0  0  0  0  0  0  0  0  0  0
    7.5292   -6.5125    0.0000 C   0  0  0  0  0  0  0  0  0  0  0  0
    7.6917   -5.7792    0.0000 C   0  0  0  0  0  0  0  0  0  0  0  0
    3.6167   -7.0917    0.0000 C   0  0  0  0  0  0  0  0  0  0  0  0
    7.0042   -8.0542    0.0000 O   0  0  0  0  0  0  0  0  0  0  0  0
    3.9042   -5.8167    0.0000 C   0  0  0  0  0  0  0  0  0  0  0  0
    8.3875   -5.4792    0.0000 O   0  0  0  0  0  0  0  0  0  0  0  0
    5.6292   -5.1750    0.0000 C   0  0  0  0  0  0  0  0  0  0  0  0
    7.2042   -5.2167    0.0000 C   0  0  0  0  0  0  0  0  0  0  0  0
    8.3167   -4.7375    0.0000 C   0  0  0  0  0  0  0  0  0  0  0  0
    7.5875   -4.5667    0.0000 C   0  0  0  0  0  0  0  0  0  0  0  0
    2.8792   -6.9250    0.0000 C   0  0  0  0  0  0  0  0  0  0  0  0
    3.1750   -5.6417    0.0000 C   0  0  0  0  0  0  0  0  0  0  0  0
    5.6375   -4.4750    0.0000 C   0  0  0  0  0  0  0  0  0  0  0  0
    2.6542   -6.2000    0.0000 C   0  0  0  0  0  0  0  0  0  0  0  0
    3.8292   -7.8042    0.0000 O   0  0  0  0  0  0  0  0  0  0  0  0
    6.8500   -5.2000    0.0000 C   0  0  0  0  0  0  0  0  0  0  0  0
    5.0292   -4.1125    0.0000 O   0  0  0  0  0  0  0  0  0  0  0  0
    6.8625   -4.4917    0.0000 C   0  0  0  0  0  0  0  0  0  0  0  0
    6.2542   -4.1250    0.0000 C   0  0  0  0  0  0  0  0  0  0  0  0
    2.9542   -4.9292    0.0000 C   0  0  0  0  0  0  0  0  0  0  0  0
  2  1  2  0  0  0  0
  3  5  1  0  0  0  0
  4  2  1  0  0  0  0
  5  1  1  0  0  0  0
  6  2  1  0  0  0  0
  7  8  1  0  0  0  0
  8  1  1  0  0  0  0
  9  4  1  0  0  0  0
 10  6  1  0  0  0  0
 11  3  1  0  0  0  0
 12 11  1  0  0  0  0
 13  9  1  0  0  0  0
 14  5  2  0  0  0  0
 15  9  2  0  0  0  0
 16 12  1  0  0  0  0
 17 10  1  0  0  0  0
 18 12  2  0  0  0  0
 19 16  1  0  0  0  0
 20 18  1  0  0  0  0
 21 13  2  0  0  0  0
 22 15  1  0  0  0  0
 23 17  2  0  0  0  0
 24 22  2  0  0  0  0
 25 13  1  0  0  0  0
 26 10  2  0  0  0  0
 27 23  1  0  0  0  0
 28 26  1  0  0  0  0
 29 28  2  0  0  0  0
 30 22  1  0  0  0  0
  7  4  2  0  0  0  0
  3  6  1  0  0  0  0
 20 19  2  0  0  0  0
 23 29  1  0  0  0  0
 24 21  1  0  0  0  0
M  END
>  <Code> (P1306871)
P1306871

>  <Number of H-Donors> (P1306871)
3

>  <Number of H-Acceptors> (P1306871)
4

>  <Number of Rotatable bonds> (P1306871)
4

>  <CLogP> (P1306871)
4.100000000000000e+000

>  <Number of Rings> (P1306871)
5

>  <PSA> (P1306871)
1.026000000000000e+002

$$$$

  -ISIS-  11102212342D

 31 35  0  0  0  0  0  0  0  0999 V2000
   -1.0708   -0.4042    0.0000 C   0  0  0  0  0  0  0  0  0  0  0  0
    0.3500   -0.4042    0.0000 N   0  0  3  0  0  0  0  0  0  0  0  0
   -0.3583   -0.8167    0.0000 C   0  0  0  0  0  0  0  0  0  0  0  0
   -1.0708    0.4250    0.0000 C   0  0  0  0  0  0  0  0  0  0  0  0
   -1.7833   -0.8167    0.0000 O   0  0  0  0  0  0  0  0  0  0  0  0
   -1.7833    0.8458    0.0000 C   0  0  0  0  0  0  0  0  0  0  0  0
    1.0667   -0.8250    0.0000 C   0  0  0  0  0  0  0  0  0  0  0  0
   -2.5083    0.4250    0.0000 C   0  0  0  0  0  0  0  0  0  0  0  0
   -2.5083   -0.4042    0.0000 C   0  0  0  0  0  0  0  0  0  0  0  0
    0.3500    0.4125    0.0000 C   0  0  0  0  0  0  0  0  0  0  0  0
    1.7792   -0.4042    0.0000 C   0  0  0  0  0  0  0  0  0  0  0  0
    2.4917   -0.8250    0.0000 C   0  0  0  0  0  0  0  0  0  0  0  0
   -0.3583    0.8208    0.0000 N   0  0  0  0  0  0  0  0  0  0  0  0
   -0.3583   -1.6417    0.0000 O   0  0  0  0  0  0  0  0  0  0  0  0
   -1.7833    1.6708    0.0000 O   0  0  0  0  0  0  0  0  0  0  0  0
    3.2042   -0.4042    0.0000 C   0  0  0  0  0  0  0  0  0  0  0  0
    1.7750    0.4125    0.0000 C   0  0  0  0  0  0  0  0  0  0  0  0
   -3.2125    0.8333    0.0000 C   0  0  0  0  0  0  0  0  0  0  0  0
   -3.2250   -0.8042    0.0000 C   0  0  0  0  0  0  0  0  0  0  0  0
    1.0667    0.8208    0.0000 C   0  0  0  0  0  0  0  0  0  0  0  0
    2.4917    0.8250    0.0000 C   0  0  0  0  0  0  0  0  0  0  0  0
   -0.3708    1.6458    0.0000 C   0  0  0  0  0  0  0  0  0  0  0  0
    2.4917   -1.6417    0.0000 C   0  0  0  0  0  0  0  0  0  0  0  0
    3.2042    0.4208    0.0000 C   0  0  0  0  0  0  0  0  0  0  0  0
    3.9167   -0.8250    0.0000 C   0  0  0  0  0  0  0  0  0  0  0  0
   -3.9375    0.4250    0.0000 C   0  0  0  0  0  0  0  0  0  0  0  0
   -3.9375   -0.3917    0.0000 C   0  0  0  0  0  0  0  0  0  0  0  0
    1.0667    1.6458    0.0000 C   0  0  0  0  0  0  0  0  0  0  0  0
    0.3500    2.0625    0.0000 C   0  0  0  0  0  0  0  0  0  0  0  0
    3.2042   -2.0542    0.0000 C   0  0  0  0  0  0  0  0  0  0  0  0
    3.9167   -1.6417    0.0000 C   0  0  0  0  0  0  0  0  0  0  0  0
  2  3  1  0  0  0  0
  3  1  1  0  0  0  0
  4  1  2  0  0  0  0
  5  1  1  0  0  0  0
  6  4  1  0  0  0  0
  7  2  1  0  0  0  0
  8  9  2  0  0  0  0
  9  5  1  0  0  0  0
 10  2  1  0  0  0  0
 11  7  1  0  0  0  0
 12 11  2  0  0  0  0
 13 10  1  0  0  0  0
 14  3  2  0  0  0  0
 15  6  2  0  0  0  0
 16 12  1  0  0  0  0
 17 11  1  0  0  0  0
 18  8  1  0  0  0  0
 19  9  1  0  0  0  0
 20 10  2  0  0  0  0
 21 17  2  0  0  0  0
 22 13  2  0  0  0  0
 23 12  1  0  0  0  0
 24 21  1  0  0  0  0
 25 16  1  0  0  0  0
 26 27  1  0  0  0  0
 27 19  2  0  0  0  0
 28 20  1  0  0  0  0
 29 28  2  0  0  0  0
 30 23  2  0  0  0  0
 31 30  1  0  0  0  0
  8  6  1  0  0  0  0
 26 18  2  0  0  0  0
 29 22  1  0  0  0  0
 24 16  2  0  0  0  0
 25 31  2  0  0  0  0
M  END
>  <Code> (P1306558)
P1306558

>  <Number of H-Donors> (P1306558)
0

>  <Number of H-Acceptors> (P1306558)
4

>  <Number of Rotatable bonds> (P1306558)
4

>  <CLogP> (P1306558)
4.500000000000000e+000

>  <Number of Rings> (P1306558)
5

>  <PSA> (P1306558)
5.950000000000000e+001

$$$$

  -ISIS-  11102212342D

 28 30  0  0  0  0  0  0  0  0999 V2000
    0.1542    0.3958    0.0000 C   0  0  0  0  0  0  0  0  0  0  0  0
    0.8292    0.8875    0.0000 C   0  0  0  0  0  0  0  0  0  0  0  0
   -0.5208    0.8875    0.0000 N   0  0  0  0  0  0  0  0  0  0  0  0
    0.1542   -0.4250    0.0000 N   0  0  0  0  0  0  0  0  0  0  0  0
    0.5667    1.6750    0.0000 N   0  0  0  0  0  0  0  0  0  0  0  0
   -0.2583    1.6750    0.0000 O   0  0  0  0  0  0  0  0  0  0  0  0
   -0.5583   -0.8417    0.0000 C   0  0  0  0  0  0  0  0  0  0  0  0
    1.6000    0.6333    0.0000 C   0  0  0  0  0  0  0  0  0  0  0  0
   -1.9958   -0.8417    0.0000 O   0  0  0  0  0  0  0  0  0  0  0  0
    2.2167    1.1875    0.0000 C   0  0  0  0  0  0  0  0  0  0  0  0
   -2.7125   -0.4250    0.0000 C   0  0  0  0  0  0  0  0  0  0  0  0
   -1.2708   -0.4250    0.0000 C   0  0  3  0  0  0  0  0  0  0  0  0
    2.9792    0.9375    0.0000 C   0  0  0  0  0  0  0  0  0  0  0  0
   -0.5583   -1.6625    0.0000 O   0  0  0  0  0  0  0  0  0  0  0  0
    3.1542    0.1333    0.0000 C   0  0  0  0  0  0  0  0  0  0  0  0
    1.7750   -0.1750    0.0000 C   0  0  0  0  0  0  0  0  0  0  0  0
   -3.4250   -0.8417    0.0000 C   0  0  0  0  0  0  0  0  0  0  0  0
    2.5625   -0.4250    0.0000 C   0  0  0  0  0  0  0  0  0  0  0  0
   -3.4208   -1.6625    0.0000 F   0  0  0  0  0  0  0  0  0  0  0  0
    3.9542   -0.1250    0.0000 O   0  0  0  0  0  0  0  0  0  0  0  0
    3.6042    1.4833    0.0000 C   0  0  0  0  0  0  0  0  0  0  0  0
   -2.7125    0.4000    0.0000 C   0  0  0  0  0  0  0  0  0  0  0  0
   -1.2708    0.3958    0.0000 C   0  0  0  0  0  0  0  0  0  0  0  0
   -4.1333   -0.4250    0.0000 C   0  0  0  0  0  0  0  0  0  0  0  0
    4.1292   -0.9292    0.0000 C   0  0  0  0  0  0  0  0  0  0  0  0
   -1.9958    0.8208    0.0000 C   0  0  0  0  0  0  0  0  0  0  0  0
   -3.4250    0.8208    0.0000 C   0  0  0  0  0  0  0  0  0  0  0  0
   -4.1458    0.3958    0.0000 C   0  0  0  0  0  0  0  0  0  0  0  0
  2  1  1  0  0  0  0
  3  1  2  0  0  0  0
  4  1  1  0  0  0  0
  5  2  2  0  0  0  0
  6  3  1  0  0  0  0
  7  4  1  0  0  0  0
  8  2  1  0  0  0  0
  9 12  1  0  0  0  0
 10  8  1  0  0  0  0
 11  9  1  0  0  0  0
 12  7  1  0  0  0  0
 13 10  2  0  0  0  0
 14  7  2  0  0  0  0
 15 18  2  0  0  0  0
 16  8  2  0  0  0  0
 17 11  1  0  0  0  0
 18 16  1  0  0  0  0
 19 17  1  0  0  0  0
 20 15  1  0  0  0  0
 21 13  1  0  0  0  0
 22 11  2  0  0  0  0
 23 12  1  0  0  0  0
 24 17  2  0  0  0  0
 25 20  1  0  0  0  0
 26 23  1  0  0  0  0
 27 22  1  0  0  0  0
 28 27  2  0  0  0  0
  6  5  1  0  0  0  0
 15 13  1  0  0  0  0
 24 28  1  0  0  0  0
M  END
>  <Code> (P1305222)
P1305222

>  <Number of H-Donors> (P1305222)
1

>  <Number of H-Acceptors> (P1305222)
5

>  <Number of Rotatable bonds> (P1305222)
7

>  <CLogP> (P1305222)
4.400000000000000e+000

>  <Number of Rings> (P1305222)
3

>  <PSA> (P1305222)
8.650000000000000e+001

$$$$

  -ISIS-  11102212342D

 25 27  0  0  0  0  0  0  0  0999 V2000
    4.0625   -5.1917    0.0000 C   0  0  0  0  0  0  0  0  0  0  0  0
    3.8292   -5.9792    0.0000 C   0  0  0  0  0  0  0  0  0  0  0  0
    4.8792   -5.1625    0.0000 N   0  0  0  0  0  0  0  0  0  0  0  0
    4.5042   -6.4500    0.0000 O   0  0  0  0  0  0  0  0  0  0  0  0
    5.1542   -5.9500    0.0000 C   0  0  0  0  0  0  0  0  0  0  0  0
    3.5542   -4.5417    0.0000 C   0  0  0  0  0  0  0  0  0  0  0  0
    3.0542   -3.8875    0.0000 N   0  0  0  0  0  0  0  0  0  0  0  0
    3.0542   -6.2542    0.0000 N   0  0  0  0  0  0  0  0  0  0  0  0
    8.7292   -5.5042    0.0000 C   0  0  0  0  0  0  0  0  0  0  0  0
    8.9250   -6.3042    0.0000 C   0  0  0  0  0  0  0  0  0  0  0  0
    7.9375   -5.2792    0.0000 C   0  0  0  0  0  0  0  0  0  0  0  0
    0.0875   -6.5292    0.0000 N   0  0  0  0  0  0  0  0  0  0  0  0
    5.9500   -6.1875    0.0000 C   0  0  0  0  0  0  0  0  0  0  0  0
    8.3250   -6.8792    0.0000 C   0  0  0  0  0  0  0  0  0  0  0  0
    7.3417   -5.8417    0.0000 C   0  0  0  0  0  0  0  0  0  0  0  0
    6.5500   -5.6125    0.0000 O   0  0  0  0  0  0  0  0  0  0  0  0
    2.4250   -5.7042    0.0000 C   0  0  0  0  0  0  0  0  0  0  0  0
    9.7125   -6.5500    0.0000 Cl  0  0  0  0  0  0  0  0  0  0  0  0
    7.5292   -6.6417    0.0000 C   0  0  0  0  0  0  0  0  0  0  0  0
    1.6417   -5.9875    0.0000 C   0  0  0  0  0  0  0  0  0  0  0  0
    9.3167   -4.9292    0.0000 C   0  0  0  0  0  0  0  0  0  0  0  0
    0.7167   -7.0667    0.0000 C   0  0  0  0  0  0  0  0  0  0  0  0
    0.2375   -5.7167    0.0000 C   0  0  0  0  0  0  0  0  0  0  0  0
    1.0167   -5.4417    0.0000 C   0  0  0  0  0  0  0  0  0  0  0  0
    1.4917   -6.7917    0.0000 C   0  0  0  0  0  0  0  0  0  0  0  0
  2  1  2  0  0  0  0
  3  1  1  0  0  0  0
  4  2  1  0  0  0  0
  5  3  2  0  0  0  0
  6  1  1  0  0  0  0
  7  6  3  0  0  0  0
  8  2  1  0  0  0  0
  9 11  2  0  0  0  0
 10 14  2  0  0  0  0
 11 15  1  0  0  0  0
 12 22  1  0  0  0  0
 13  5  1  0  0  0  0
 14 19  1  0  0  0  0
 15 16  1  0  0  0  0
 16 13  1  0  0  0  0
 17  8  1  0  0  0  0
 18 10  1  0  0  0  0
 19 15  2  0  0  0  0
 20 17  1  0  0  0  0
 21  9  1  0  0  0  0
 22 25  2  0  0  0  0
 23 24  1  0  0  0  0
 24 20  2  0  0  0  0
 25 20  1  0  0  0  0
  5  4  1  0  0  0  0
 12 23  2  0  0  0  0
 10  9  1  0  0  0  0
M  END
>  <Code> (P1302321)
P1302321

>  <Number of H-Donors> (P1302321)
1

>  <Number of H-Acceptors> (P1302321)
5

>  <Number of Rotatable bonds> (P1302321)
6

>  <CLogP> (P1302321)
3.300000000000000e+000

>  <Number of Rings> (P1302321)
3

>  <PSA> (P1302321)
8.400000000000000e+001

$$$$

  -ISIS-  11102212342D

 22 24  0  0  0  0  0  0  0  0999 V2000
    2.6125   -2.4000    0.0000 C   0  0  0  0  0  0  0  0  0  0  0  0
    1.9000   -2.8125    0.0000 N   0  0  0  0  0  0  0  0  0  0  0  0
    3.3292   -2.8125    0.0000 C   0  0  0  0  0  0  0  0  0  0  0  0
    4.0417   -2.3917    0.0000 C   0  0  0  0  0  0  0  0  0  0  0  0
    1.9000   -3.6417    0.0000 C   0  0  0  0  0  0  0  0  0  0  0  0
    2.6125   -4.0542    0.0000 N   0  0  0  0  0  0  0  0  0  0  0  0
    2.6042   -1.5750    0.0000 N   0  0  0  0  0  0  0  0  0  0  0  0
    3.3292   -3.6417    0.0000 C   0  0  0  0  0  0  0  0  0  0  0  0
    4.7542   -2.8042    0.0000 N   0  0  0  0  0  0  0  0  0  0  0  0
    4.0375   -1.5667    0.0000 O   0  0  0  0  0  0  0  0  0  0  0  0
    1.1792   -4.0542    0.0000 S   0  0  0  0  0  0  0  0  0  0  0  0
    1.8917   -1.1667    0.0000 C   0  0  3  0  0  0  0  0  0  0  0  0
    5.4667   -2.3917    0.0000 C   0  0  3  0  0  0  0  0  0  0  0  0
    0.4667   -3.6417    0.0000 C   0  0  0  0  0  0  0  0  0  0  0  0
    1.8042   -0.3417    0.0000 C   0  0  0  0  0  0  0  0  0  0  0  0
    1.1417   -1.5042    0.0000 C   0  0  0  0  0  0  0  0  0  0  0  0
    6.2250   -2.7167    0.0000 C   0  0  0  0  0  0  0  0  0  0  0  0
    5.5542   -1.5667    0.0000 C   0  0  0  0  0  0  0  0  0  0  0  0
    0.5917   -0.8917    0.0000 C   0  0  0  0  0  0  0  0  0  0  0  0
    6.7750   -2.1042    0.0000 C   0  0  0  0  0  0  0  0  0  0  0  0
    6.3542   -1.3917    0.0000 C   0  0  0  0  0  0  0  0  0  0  0  0
    1.0000   -0.1792    0.0000 C   0  0  0  0  0  0  0  0  0  0  0  0
  2  1  1  0  0  0  0
  3  1  2  0  0  0  0
  4  3  1  0  0  0  0
  5  2  2  0  0  0  0
  6  8  2  0  0  0  0
  7  1  1  0  0  0  0
  8  3  1  0  0  0  0
  9  4  1  0  0  0  0
 10  4  2  0  0  0  0
 11  5  1  0  0  0  0
 12  7  1  0  0  0  0
 13  9  1  0  0  0  0
 14 11  1  0  0  0  0
 15 12  1  0  0  0  0
 16 12  1  0  0  0  0
 17 13  1  0  0  0  0
 18 13  1  0  0  0  0
 19 16  1  0  0  0  0
 20 17  1  0  0  0  0
 21 18  1  0  0  0  0
 22 15  1  0  0  0  0
  6  5  1  0  0  0  0
 19 22  1  0  0  0  0
 21 20  1  0  0  0  0
M  END
>  <Code> (P1287048)
P1287048

>  <Number of H-Donors> (P1287048)
2

>  <Number of H-Acceptors> (P1287048)
5

>  <Number of Rotatable bonds> (P1287048)
5

>  <CLogP> (P1287048)
3.500000000000000e+000

>  <Number of Rings> (P1287048)
3

>  <PSA> (P1287048)
9.219999999999999e+001

$$$$

  -ISIS-  11102212342D

 16 17  0  0  0  0  0  0  0  0999 V2000
    2.3667   -2.3125    0.0000 N   0  0  0  0  0  0  0  0  0  0  0  0
    3.0792   -1.9000    0.0000 C   0  0  0  0  0  0  0  0  0  0  0  0
    2.3667   -3.1417    0.0000 C   0  0  0  0  0  0  0  0  0  0  0  0
    3.8000   -2.3125    0.0000 C   0  0  0  0  0  0  0  0  0  0  0  0
    3.0792   -3.5542    0.0000 N   0  0  0  0  0  0  0  0  0  0  0  0
    3.0792   -1.0750    0.0000 N   0  0  0  0  0  0  0  0  0  0  0  0
    4.5125   -1.8917    0.0000 C   0  0  0  0  0  0  0  0  0  0  0  0
    5.2292   -2.3042    0.0000 N   0  0  0  0  0  0  0  0  0  0  0  0
    3.8000   -3.1417    0.0000 C   0  0  0  0  0  0  0  0  0  0  0  0
    1.6542   -3.5542    0.0000 S   0  0  0  0  0  0  0  0  0  0  0  0
    2.3667   -0.6667    0.0000 C   0  0  3  0  0  0  0  0  0  0  0  0
    0.9417   -3.1417    0.0000 C   0  0  0  0  0  0  0  0  0  0  0  0
    2.2792    0.1583    0.0000 C   0  0  0  0  0  0  0  0  0  0  0  0
    1.6167   -1.0042    0.0000 C   0  0  0  0  0  0  0  0  0  0  0  0
    1.0625   -0.3917    0.0000 C   0  0  0  0  0  0  0  0  0  0  0  0
    1.4667    0.3208    0.0000 C   0  0  0  0  0  0  0  0  0  0  0  0
  2  1  1  0  0  0  0
  3  1  2  0  0  0  0
  4  2  2  0  0  0  0
  5  3  1  0  0  0  0
  6  2  1  0  0  0  0
  7  4  1  0  0  0  0
  8  7  3  0  0  0  0
  9  5  2  0  0  0  0
 10  3  1  0  0  0  0
 11  6  1  0  0  0  0
 12 10  1  0  0  0  0
 13 11  1  0  0  0  0
 14 11  1  0  0  0  0
 15 14  1  0  0  0  0
 16 13  1  0  0  0  0
  4  9  1  0  0  0  0
 15 16  1  0  0  0  0
M  END
>  <Code> (P1287045)
P1287045

>  <Number of H-Donors> (P1287045)
1

>  <Number of H-Acceptors> (P1287045)
5

>  <Number of Rotatable bonds> (P1287045)
3

>  <CLogP> (P1287045)
2.700000000000000e+000

>  <Number of Rings> (P1287045)
2

>  <PSA> (P1287045)
8.690000000000001e+001

$$$$

  -ISIS-  11102212342D

 17 18  0  0  0  0  0  0  0  0999 V2000
    3.0792   -1.9000    0.0000 C   0  0  0  0  0  0  0  0  0  0  0  0
    2.3667   -2.3125    0.0000 N   0  0  0  0  0  0  0  0  0  0  0  0
    3.8000   -2.3125    0.0000 C   0  0  0  0  0  0  0  0  0  0  0  0
    2.3667   -3.1417    0.0000 C   0  0  0  0  0  0  0  0  0  0  0  0
    4.5125   -1.8917    0.0000 C   0  0  0  0  0  0  0  0  0  0  0  0
    3.0792   -3.5542    0.0000 N   0  0  0  0  0  0  0  0  0  0  0  0
    3.0792   -1.0750    0.0000 N   0  0  0  0  0  0  0  0  0  0  0  0
    3.8000   -3.1417    0.0000 C   0  0  0  0  0  0  0  0  0  0  0  0
    4.5042   -1.0667    0.0000 O   0  0  0  0  0  0  0  0  0  0  0  0
    1.6542   -3.5542    0.0000 S   0  0  0  0  0  0  0  0  0  0  0  0
    5.2292   -2.3042    0.0000 N   0  0  0  0  0  0  0  0  0  0  0  0
    2.3667   -0.6667    0.0000 C   0  0  3  0  0  0  0  0  0  0  0  0
    0.9417   -3.1417    0.0000 C   0  0  0  0  0  0  0  0  0  0  0  0
    1.6167   -1.0042    0.0000 C   0  0  0  0  0  0  0  0  0  0  0  0
    2.2792    0.1583    0.0000 C   0  0  0  0  0  0  0  0  0  0  0  0
    1.4667    0.3208    0.0000 C   0  0  0  0  0  0  0  0  0  0  0  0
    1.0625   -0.3917    0.0000 C   0  0  0  0  0  0  0  0  0  0  0  0
  2  1  1  0  0  0  0
  3  1  2  0  0  0  0
  4  2  2  0  0  0  0
  5  3  1  0  0  0  0
  6  8  2  0  0  0  0
  7  1  1  0  0  0  0
  8  3  1  0  0  0  0
  9  5  2  0  0  0  0
 10  4  1  0  0  0  0
 11  5  1  0  0  0  0
 12  7  1  0  0  0  0
 13 10  1  0  0  0  0
 14 12  1  0  0  0  0
 15 12  1  0  0  0  0
 16 15  1  0  0  0  0
 17 14  1  0  0  0  0
  6  4  1  0  0  0  0
 17 16  1  0  0  0  0
M  END
>  <Code> (P1287044)
P1287044

>  <Number of H-Donors> (P1287044)
2

>  <Number of H-Acceptors> (P1287044)
5

>  <Number of Rotatable bonds> (P1287044)
4

>  <CLogP> (P1287044)
1.900000000000000e+000

>  <Number of Rings> (P1287044)
2

>  <PSA> (P1287044)
1.062000000000000e+002

$$$$

  -ISIS-  11102212342D

 23 26  0  0  0  0  0  0  0  0999 V2000
    4.0625   -3.7917    0.0000 C   0  0  0  0  0  0  0  0  0  0  0  0
    4.4750   -3.0792    0.0000 N   0  0  3  0  0  0  0  0  0  0  0  0
    3.2542   -3.6292    0.0000 N   0  0  0  0  0  0  0  0  0  0  0  0
    3.1667   -2.8042    0.0000 C   0  0  0  0  0  0  0  0  0  0  0  0
    4.4875   -4.5250    0.0000 C   0  0  0  0  0  0  0  0  0  0  0  0
    3.9167   -2.4667    0.0000 C   0  0  0  0  0  0  0  0  0  0  0  0
    5.3125   -3.0667    0.0000 C   0  0  0  0  0  0  0  0  0  0  0  0
    5.3125   -4.5042    0.0000 C   0  0  0  0  0  0  0  0  0  0  0  0
    5.7250   -3.7917    0.0000 C   0  0  0  0  0  0  0  0  0  0  0  0
    2.4417   -2.3917    0.0000 C   0  0  0  0  0  0  0  0  0  0  0  0
    1.0167   -1.5667    0.0000 C   0  0  0  0  0  0  0  0  0  0  0  0
    4.0750   -5.2375    0.0000 N   0  0  0  0  0  0  0  0  0  0  0  0
    2.4417   -1.5667    0.0000 C   0  0  0  0  0  0  0  0  0  0  0  0
    1.7292   -2.8042    0.0000 C   0  0  0  0  0  0  0  0  0  0  0  0
    1.0167   -2.3917    0.0000 C   0  0  0  0  0  0  0  0  0  0  0  0
    1.7292   -1.1542    0.0000 C   0  0  0  0  0  0  0  0  0  0  0  0
    0.3042   -1.1542    0.0000 C   0  0  0  0  0  0  0  0  0  0  0  0
    6.5542   -3.7917    0.0000 C   0  0  0  0  0  0  0  0  0  0  0  0
   -0.4125   -1.5667    0.0000 C   0  0  0  0  0  0  0  0  0  0  0  0
    0.3042   -0.3292    0.0000 C   0  0  0  0  0  0  0  0  0  0  0  0
   -0.4125    0.0875    0.0000 C   0  0  0  0  0  0  0  0  0  0  0  0
   -1.1250   -1.1667    0.0000 C   0  0  0  0  0  0  0  0  0  0  0  0
   -1.1250   -0.3292    0.0000 C   0  0  0  0  0  0  0  0  0  0  0  0
  2  1  1  0  0  0  0
  3  1  2  0  0  0  0
  4  3  1  0  0  0  0
  5  1  1  0  0  0  0
  6  2  1  0  0  0  0
  7  2  1  0  0  0  0
  8  5  2  0  0  0  0
  9  8  1  0  0  0  0
 10  4  1  0  0  0  0
 11 15  2  0  0  0  0
 12  5  1  0  0  0  0
 13 10  1  0  0  0  0
 14 10  2  0  0  0  0
 15 14  1  0  0  0  0
 16 13  2  0  0  0  0
 17 11  1  0  0  0  0
 18  9  1  0  0  0  0
 19 17  1  0  0  0  0
 20 17  2  0  0  0  0
 21 20  1  0  0  0  0
 22 19  2  0  0  0  0
 23 21  2  0  0  0  0
  4  6  2  0  0  0  0
  9  7  2  0  0  0  0
 11 16  1  0  0  0  0
 23 22  1  0  0  0  0
M  END
>  <Code> (P1267391)
P1267391

>  <Number of H-Donors> (P1267391)
1

>  <Number of H-Acceptors> (P1267391)
2

>  <Number of Rotatable bonds> (P1267391)
2

>  <CLogP> (P1267391)
3.800000000000000e+000

>  <Number of Rings> (P1267391)
4

>  <PSA> (P1267391)
4.330000000000000e+001

$$$$

  -ISIS-  11102212342D

 27 30  0  0  0  0  0  0  0  0999 V2000
    6.4542   -5.4292    0.0000 C   0  0  0  0  0  0  0  0  0  0  0  0
    6.4542   -6.2042    0.0000 C   0  0  0  0  0  0  0  0  0  0  0  0
    7.8542   -6.2042    0.0000 C   0  0  0  0  0  0  0  0  0  0  0  0
    5.0792   -5.3875    0.0000 N   0  0  3  0  0  0  0  0  0  0  0  0
    7.8417   -5.4125    0.0000 N   0  0  3  0  0  0  0  0  0  0  0  0
    7.1625   -6.6042    0.0000 N   0  0  0  0  0  0  0  0  0  0  0  0
    5.7875   -6.6125    0.0000 N   0  0  3  0  0  0  0  0  0  0  0  0
    5.0792   -6.2042    0.0000 C   0  0  0  0  0  0  0  0  0  0  0  0
    5.7875   -5.0042    0.0000 C   0  0  0  0  0  0  0  0  0  0  0  0
    8.5500   -6.6000    0.0000 N   0  0  3  0  0  0  0  0  0  0  0  0
    9.2292   -5.4042    0.0000 C   0  0  0  0  0  0  0  0  0  0  0  0
    9.2292   -6.2042    0.0000 C   0  0  0  0  0  0  0  0  0  0  0  0
    4.5042   -4.8042    0.0000 C   0  0  0  0  0  0  0  0  0  0  0  0
    3.6917   -5.0167    0.0000 C   0  0  0  0  0  0  0  0  0  0  0  0
    4.3875   -6.6500    0.0000 O   0  0  0  0  0  0  0  0  0  0  0  0
    5.7875   -4.2125    0.0000 O   0  0  0  0  0  0  0  0  0  0  0  0
    3.1125   -4.4167    0.0000 C   0  0  0  0  0  0  0  0  0  0  0  0
    5.7875   -7.4042    0.0000 C   0  0  0  0  0  0  0  0  0  0  0  0
    8.3292   -7.4042    0.0000 C   0  0  0  0  0  0  0  0  0  0  0  0
    3.3292   -3.6167    0.0000 Cl  0  0  0  0  0  0  0  0  0  0  0  0
    9.9542   -6.6125    0.0000 C   0  0  0  0  0  0  0  0  0  0  0  0
    3.4792   -5.8125    0.0000 C   0  0  0  0  0  0  0  0  0  0  0  0
    8.7042   -8.7917    0.0000 O   0  0  0  0  0  0  0  0  0  0  0  0
    2.3042   -4.6375    0.0000 C   0  0  0  0  0  0  0  0  0  0  0  0
    8.9167   -7.9917    0.0000 C   0  0  0  0  0  0  0  0  0  0  0  0
    2.6875   -6.0292    0.0000 C   0  0  0  0  0  0  0  0  0  0  0  0
    2.0917   -5.4375    0.0000 C   0  0  0  0  0  0  0  0  0  0  0  0
  2  1  2  0  0  0  0
  3  5  1  0  0  0  0
  4  9  1  0  0  0  0
  5  1  1  0  0  0  0
  6  2  1  0  0  0  0
  7  2  1  0  0  0  0
  8  4  1  0  0  0  0
  9  1  1  0  0  0  0
 10  3  1  0  0  0  0
 11  5  1  0  0  0  0
 12 11  2  0  0  0  0
 13  4  1  0  0  0  0
 14 13  1  0  0  0  0
 15  8  2  0  0  0  0
 16  9  2  0  0  0  0
 17 14  2  0  0  0  0
 18  7  1  0  0  0  0
 19 10  1  0  0  0  0
 20 17  1  0  0  0  0
 21 12  1  0  0  0  0
 22 14  1  0  0  0  0
 23 25  1  0  0  0  0
 24 17  1  0  0  0  0
 25 19  1  0  0  0  0
 26 22  2  0  0  0  0
 27 26  1  0  0  0  0
  3  6  2  0  0  0  0
  7  8  1  0  0  0  0
 12 10  1  0  0  0  0
 27 24  2  0  0  0  0
M  END
>  <Code> (P1264415)
P1264415

>  <Number of H-Donors> (P1264415)
1

>  <Number of H-Acceptors> (P1264415)
4

>  <Number of Rotatable bonds> (P1264415)
4

>  <CLogP> (P1264415)
1.900000000000000e+000

>  <Number of Rings> (P1264415)
4

>  <PSA> (P1264415)
8.310000000000002e+001

$$$$

  -ISIS-  11102212342D

 26 29  0  0  0  0  0  0  0  0999 V2000
   -0.4750    3.2708    0.0000 N   0  0  3  0  0  0  0  0  0  0  0  0
   -0.8083    2.5208    0.0000 C   0  0  0  0  0  0  0  0  0  0  0  0
   -1.0958    3.8333    0.0000 N   0  0  0  0  0  0  0  0  0  0  0  0
   -1.6333    2.6083    0.0000 C   0  0  0  0  0  0  0  0  0  0  0  0
   -1.8125    3.4208    0.0000 C   0  0  0  0  0  0  0  0  0  0  0  0
    0.3375    3.4458    0.0000 C   0  0  0  0  0  0  0  0  0  0  0  0
   -4.1208    2.8708    0.0000 C   0  0  0  0  0  0  0  0  0  0  0  0
   -2.1250    1.9375    0.0000 C   0  0  0  0  0  0  0  0  0  0  0  0
   -0.4750    1.7625    0.0000 N   0  0  0  0  0  0  0  0  0  0  0  0
   -4.4458    3.6250    0.0000 C   0  0  0  0  0  0  0  0  0  0  0  0
    0.8917    2.8208    0.0000 C   0  0  0  0  0  0  0  0  0  0  0  0
   -1.7875    1.1833    0.0000 N   0  0  0  0  0  0  0  0  0  0  0  0
   -3.2833    2.7833    0.0000 N   0  0  0  0  0  0  0  0  0  0  0  0
   -2.9500    2.0250    0.0000 N   0  0  0  0  0  0  0  0  0  0  0  0
    1.6917    3.0083    0.0000 C   0  0  0  0  0  0  0  0  0  0  0  0
   -0.9583    1.0958    0.0000 C   0  0  0  0  0  0  0  0  0  0  0  0
   -5.2708    3.8083    0.0000 O   0  0  0  0  0  0  0  0  0  0  0  0
    1.9542    3.7958    0.0000 C   0  0  0  0  0  0  0  0  0  0  0  0
   -4.5958    2.2083    0.0000 O   0  0  0  0  0  0  0  0  0  0  0  0
   -4.0333    4.3417    0.0000 C   0  0  0  0  0  0  0  0  0  0  0  0
    0.5917    4.2167    0.0000 C   0  0  0  0  0  0  0  0  0  0  0  0
   -5.3458    4.6042    0.0000 C   0  0  0  0  0  0  0  0  0  0  0  0
   -4.5958    4.9375    0.0000 C   0  0  0  0  0  0  0  0  0  0  0  0
    1.4042    4.3792    0.0000 C   0  0  0  0  0  0  0  0  0  0  0  0
    2.2417    2.3958    0.0000 Cl  0  0  0  0  0  0  0  0  0  0  0  0
    2.7542    3.9583    0.0000 Cl  0  0  0  0  0  0  0  0  0  0  0  0
  2  1  1  0  0  0  0
  3  1  1  0  0  0  0
  4  2  2  0  0  0  0
  5  3  2  0  0  0  0
  6  1  1  0  0  0  0
  7 13  1  0  0  0  0
  8  4  1  0  0  0  0
  9  2  1  0  0  0  0
 10  7  1  0  0  0  0
 11  6  2  0  0  0  0
 12 16  1  0  0  0  0
 13 14  1  0  0  0  0
 14  8  1  0  0  0  0
 15 11  1  0  0  0  0
 16  9  2  0  0  0  0
 17 10  1  0  0  0  0
 18 24  1  0  0  0  0
 19  7  2  0  0  0  0
 20 10  2  0  0  0  0
 21  6  1  0  0  0  0
 22 17  1  0  0  0  0
 23 20  1  0  0  0  0
 24 21  2  0  0  0  0
 25 15  1  0  0  0  0
 26 18  1  0  0  0  0
  4  5  1  0  0  0  0
 18 15  2  0  0  0  0
 12  8  2  0  0  0  0
 22 23  2  0  0  0  0
M  END
>  <Code> (P1262403)
P1262403

>  <Number of H-Donors> (P1262403)
2

>  <Number of H-Acceptors> (P1262403)
5

>  <Number of Rotatable bonds> (P1262403)
4

>  <CLogP> (P1262403)
3.100000000000000e+000

>  <Number of Rings> (P1262403)
4

>  <PSA> (P1262403)
9.790000000000001e+001

$$$$

  -ISIS-  11102212342D

 25 27  0  0  0  0  0  0  0  0999 V2000
    3.3042   -2.2292    0.0000 C   0  0  0  0  0  0  0  0  0  0  0  0
    3.7167   -2.9542    0.0000 C   0  0  0  0  0  0  0  0  0  0  0  0
    2.4917   -2.4167    0.0000 C   0  0  0  0  0  0  0  0  0  0  0  0
    2.4167   -3.2417    0.0000 C   0  0  0  0  0  0  0  0  0  0  0  0
    3.1792   -3.5667    0.0000 S   0  0  0  0  0  0  0  0  0  0  0  0
    3.7042   -1.5167    0.0000 C   0  0  0  0  0  0  0  0  0  0  0  0
    4.5542   -2.9417    0.0000 N   0  0  0  0  0  0  0  0  0  0  0  0
    4.5417   -1.5042    0.0000 N   0  0  3  0  0  0  0  0  0  0  0  0
    4.9542   -2.2167    0.0000 C   0  0  0  0  0  0  0  0  0  0  0  0
    1.6667   -3.5917    0.0000 C   0  0  0  0  0  0  0  0  0  0  0  0
    3.2792   -0.8042    0.0000 O   0  0  0  0  0  0  0  0  0  0  0  0
    1.5917   -4.4167    0.0000 O   0  0  0  0  0  0  0  0  0  0  0  0
    0.9417   -3.1917    0.0000 N   0  0  0  0  0  0  0  0  0  0  0  0
    1.8167   -1.9417    0.0000 C   0  0  0  0  0  0  0  0  0  0  0  0
    4.9500   -0.7750    0.0000 C   0  0  0  0  0  0  0  0  0  0  0  0
    5.7750    2.1250    0.0000 C   0  0  0  0  0  0  0  0  0  0  0  0
    6.1917    1.4083    0.0000 C   0  0  0  0  0  0  0  0  0  0  0  0
    6.1875    2.8500    0.0000 C   0  0  0  0  0  0  0  0  0  0  0  0
    4.5250   -0.0500    0.0000 C   0  0  0  0  0  0  0  0  0  0  0  0
    5.7792    0.6833    0.0000 O   0  0  0  0  0  0  0  0  0  0  0  0
    7.4500    2.1333    0.0000 C   0  0  0  0  0  0  0  0  0  0  0  0
    4.9417    0.6833    0.0000 C   0  0  0  0  0  0  0  0  0  0  0  0
    7.0292    1.4083    0.0000 C   0  0  0  0  0  0  0  0  0  0  0  0
    7.0292    2.8583    0.0000 C   0  0  0  0  0  0  0  0  0  0  0  0
    5.7667    3.5708    0.0000 C   0  0  0  0  0  0  0  0  0  0  0  0
  2  1  2  0  0  0  0
  3  1  1  0  0  0  0
  4  3  2  0  0  0  0
  5  2  1  0  0  0  0
  6  1  1  0  0  0  0
  7  2  1  0  0  0  0
  8  6  1  0  0  0  0
  9  8  1  0  0  0  0
 10  4  1  0  0  0  0
 11  6  2  0  0  0  0
 12 10  2  0  0  0  0
 13 10  1  0  0  0  0
 14  3  1  0  0  0  0
 15  8  1  0  0  0  0
 16 17  1  0  0  0  0
 17 20  1  0  0  0  0
 18 16  2  0  0  0  0
 19 15  1  0  0  0  0
 20 22  1  0  0  0  0
 21 23  1  0  0  0  0
 22 19  1  0  0  0  0
 23 17  2  0  0  0  0
 24 21  2  0  0  0  0
 25 18  1  0  0  0  0
  4  5  1  0  0  0  0
  7  9  2  0  0  0  0
 18 24  1  0  0  0  0
M  END
>  <Code> (P1258191)
P1258191

>  <Number of H-Donors> (P1258191)
1

>  <Number of H-Acceptors> (P1258191)
4

>  <Number of Rotatable bonds> (P1258191)
6

>  <CLogP> (P1258191)
2.700000000000000e+000

>  <Number of Rings> (P1258191)
3

>  <PSA> (P1258191)
1.132000000000000e+002

$$$$

  -ISIS-  11102212342D

 22 24  0  0  0  0  0  0  0  0999 V2000
    0.5875   -0.9000    0.0000 C   0  0  0  0  0  0  0  0  0  0  0  0
    1.0125   -1.6250    0.0000 C   0  0  0  0  0  0  0  0  0  0  0  0
   -0.2250   -1.0875    0.0000 C   0  0  0  0  0  0  0  0  0  0  0  0
    1.8250   -0.1750    0.0000 N   0  0  3  0  0  0  0  0  0  0  0  0
   -0.3000   -1.9125    0.0000 C   0  0  0  0  0  0  0  0  0  0  0  0
    0.4625   -2.2375    0.0000 S   0  0  0  0  0  0  0  0  0  0  0  0
    0.9875   -0.1875    0.0000 C   0  0  0  0  0  0  0  0  0  0  0  0
    3.0417    0.5000    0.0000 C   0  0  0  0  0  0  0  0  0  0  0  0
    1.8375   -1.6125    0.0000 N   0  0  0  0  0  0  0  0  0  0  0  0
    2.2250    0.5500    0.0000 C   0  0  0  0  0  0  0  0  0  0  0  0
    2.2375   -0.8875    0.0000 C   0  0  0  0  0  0  0  0  0  0  0  0
    4.3375    0.8333    0.0000 N   0  0  0  0  0  0  0  0  0  0  0  0
    3.4875   -0.1917    0.0000 C   0  0  0  0  0  0  0  0  0  0  0  0
    4.2875    0.0083    0.0000 O   0  0  0  0  0  0  0  0  0  0  0  0
    3.5667    1.1333    0.0000 C   0  0  0  0  0  0  0  0  0  0  0  0
   -1.0458   -2.2500    0.0000 C   0  0  0  0  0  0  0  0  0  0  0  0
    0.5625    0.5250    0.0000 O   0  0  0  0  0  0  0  0  0  0  0  0
   -1.0458   -3.0750    0.0000 O   0  0  0  0  0  0  0  0  0  0  0  0
   -1.7625   -1.8500    0.0000 N   0  0  0  0  0  0  0  0  0  0  0  0
   -0.8875   -0.6125    0.0000 C   0  0  0  0  0  0  0  0  0  0  0  0
    3.1792   -0.9625    0.0000 C   0  0  0  0  0  0  0  0  0  0  0  0
    3.3667    1.9333    0.0000 C   0  0  0  0  0  0  0  0  0  0  0  0
  2  1  2  0  0  0  0
  3  1  1  0  0  0  0
  4  7  1  0  0  0  0
  5  3  2  0  0  0  0
  6  2  1  0  0  0  0
  7  1  1  0  0  0  0
  8 10  1  0  0  0  0
  9  2  1  0  0  0  0
 10  4  1  0  0  0  0
 11  4  1  0  0  0  0
 12 15  2  0  0  0  0
 13  8  2  0  0  0  0
 14 13  1  0  0  0  0
 15  8  1  0  0  0  0
 16  5  1  0  0  0  0
 17  7  2  0  0  0  0
 18 16  2  0  0  0  0
 19 16  1  0  0  0  0
 20  3  1  0  0  0  0
 21 13  1  0  0  0  0
 22 15  1  0  0  0  0
  6  5  1  0  0  0  0
  9 11  2  0  0  0  0
 12 14  1  0  0  0  0
M  END
>  <Code> (P1247992)
P1247992

>  <Number of H-Donors> (P1247992)
1

>  <Number of H-Acceptors> (P1247992)
4

>  <Number of Rotatable bonds> (P1247992)
3

>  <CLogP> (P1247992)
1.000000000000000e+000

>  <Number of Rings> (P1247992)
3

>  <PSA> (P1247992)
1.300000000000000e+002

$$$$

  -ISIS-  11102212342D

 22 25  0  0  0  0  0  0  0  0999 V2000
    4.1042   -3.2792    0.0000 N   0  0  0  0  0  0  0  0  0  0  0  0
    4.9125   -3.4417    0.0000 C   0  0  0  0  0  0  0  0  0  0  0  0
    5.3250   -2.7292    0.0000 N   0  0  3  0  0  0  0  0  0  0  0  0
    4.0167   -2.4542    0.0000 C   0  0  0  0  0  0  0  0  0  0  0  0
    4.7750   -2.1167    0.0000 C   0  0  0  0  0  0  0  0  0  0  0  0
    5.3375   -4.1667    0.0000 C   0  0  0  0  0  0  0  0  0  0  0  0
    6.1625   -2.7167    0.0000 C   0  0  0  0  0  0  0  0  0  0  0  0
    3.2917   -2.0417    0.0000 C   0  0  0  0  0  0  0  0  0  0  0  0
    6.5792   -3.4417    0.0000 C   0  0  0  0  0  0  0  0  0  0  0  0
    6.1667   -4.1625    0.0000 C   0  0  0  0  0  0  0  0  0  0  0  0
    1.8667   -1.2167    0.0000 C   0  0  0  0  0  0  0  0  0  0  0  0
    2.5792   -2.4542    0.0000 C   0  0  0  0  0  0  0  0  0  0  0  0
    3.2917   -1.2167    0.0000 C   0  0  0  0  0  0  0  0  0  0  0  0
    2.5792   -0.8042    0.0000 C   0  0  0  0  0  0  0  0  0  0  0  0
    1.8667   -2.0417    0.0000 C   0  0  0  0  0  0  0  0  0  0  0  0
    1.1542   -0.8042    0.0000 C   0  0  0  0  0  0  0  0  0  0  0  0
    4.9250   -4.8875    0.0000 N   0  0  0  0  0  0  0  0  0  0  0  0
    1.1542    0.0208    0.0000 C   0  0  0  0  0  0  0  0  0  0  0  0
    0.4417   -1.2167    0.0000 C   0  0  0  0  0  0  0  0  0  0  0  0
   -0.2750   -0.8125    0.0000 C   0  0  0  0  0  0  0  0  0  0  0  0
    0.4417    0.4375    0.0000 C   0  0  0  0  0  0  0  0  0  0  0  0
   -0.2750    0.0208    0.0000 C   0  0  0  0  0  0  0  0  0  0  0  0
  2  1  2  0  0  0  0
  3  2  1  0  0  0  0
  4  1  1  0  0  0  0
  5  4  2  0  0  0  0
  6  2  1  0  0  0  0
  7  3  1  0  0  0  0
  8  4  1  0  0  0  0
  9 10  1  0  0  0  0
 10  6  2  0  0  0  0
 11 14  1  0  0  0  0
 12  8  2  0  0  0  0
 13  8  1  0  0  0  0
 14 13  2  0  0  0  0
 15 12  1  0  0  0  0
 16 11  1  0  0  0  0
 17  6  1  0  0  0  0
 18 16  2  0  0  0  0
 19 16  1  0  0  0  0
 20 19  2  0  0  0  0
 21 18  1  0  0  0  0
 22 20  1  0  0  0  0
  5  3  1  0  0  0  0
 15 11  2  0  0  0  0
  7  9  2  0  0  0  0
 22 21  2  0  0  0  0
M  END
>  <Code> (P1207174)
P1207174

>  <Number of H-Donors> (P1207174)
1

>  <Number of H-Acceptors> (P1207174)
2

>  <Number of Rotatable bonds> (P1207174)
2

>  <CLogP> (P1207174)
3.300000000000000e+000

>  <Number of Rings> (P1207174)
4

>  <PSA> (P1207174)
4.330000000000000e+001

$$$$

  -ISIS-  11102212342D

 24 26  0  0  0  0  0  0  0  0999 V2000
    6.6292   -8.5917    0.0000 C   0  0  0  0  0  0  0  0  0  0  0  0
    7.3417  -12.3042    0.0000 C   0  0  3  0  0  0  0  0  0  0  0  0
    7.3500   -9.0042    0.0000 C   0  0  3  0  0  0  0  0  0  0  0  0
    5.9167   -9.0042    0.0000 C   0  0  0  0  0  0  0  0  0  0  0  0
    6.6375   -7.7625    0.0000 C   0  0  0  0  0  0  0  0  0  0  0  0
    5.2042   -8.5917    0.0000 C   0  0  0  0  0  0  0  0  0  0  0  0
    5.9167   -7.3500    0.0000 C   0  0  0  0  0  0  0  0  0  0  0  0
    5.2042   -7.7625    0.0000 C   0  0  0  0  0  0  0  0  0  0  0  0
    8.0750   -8.5917    0.0000 N   0  0  0  0  0  0  0  0  0  0  0  0
    7.3417  -11.4792    0.0000 C   0  0  0  0  0  0  0  0  0  0  0  0
    7.3500   -9.8292    0.0000 C   0  0  0  0  0  0  0  0  0  0  0  0
    6.6292  -11.0625    0.0000 C   0  0  0  0  0  0  0  0  0  0  0  0
    8.0625  -11.0667    0.0000 C   0  0  0  0  0  0  0  0  0  0  0  0
    6.6292  -10.2417    0.0000 C   0  0  0  0  0  0  0  0  0  0  0  0
    8.0625  -10.2417    0.0000 C   0  0  0  0  0  0  0  0  0  0  0  0
    8.1667  -12.3042    0.0000 F   0  0  0  0  0  0  0  0  0  0  0  0
    7.3417  -13.1292    0.0000 F   0  0  0  0  0  0  0  0  0  0  0  0
    6.5167  -12.3042    0.0000 F   0  0  0  0  0  0  0  0  0  0  0  0
    8.0750   -7.7625    0.0000 C   0  0  0  0  0  0  0  0  0  0  0  0
    4.4917   -9.0042    0.0000 O   0  0  0  0  0  0  0  0  0  0  0  0
    4.4917   -7.3542    0.0000 O   0  0  0  0  0  0  0  0  0  0  0  0
    7.3542   -7.3417    0.0000 C   0  0  0  0  0  0  0  0  0  0  0  0
    3.7792   -8.5917    0.0000 C   0  0  0  0  0  0  0  0  0  0  0  0
    3.7792   -7.7625    0.0000 C   0  0  0  0  0  0  0  0  0  0  0  0
  2 10  1  0  0  0  0
  3  1  1  0  0  0  0
  4  1  2  0  0  0  0
  5  1  1  0  0  0  0
  6  4  1  0  0  0  0
  7  5  2  0  0  0  0
  8  7  1  0  0  0  0
  9  3  1  0  0  0  0
 10 13  1  0  0  0  0
 11  3  1  0  0  0  0
 12 14  1  0  0  0  0
 13 15  2  0  0  0  0
 14 11  2  0  0  0  0
 15 11  1  0  0  0  0
 16  2  1  0  0  0  0
 17  2  1  0  0  0  0
 18  2  1  0  0  0  0
 19 22  1  0  0  0  0
 20  6  1  0  0  0  0
 21  8  1  0  0  0  0
 22  5  1  0  0  0  0
 23 20  1  0  0  0  0
 24 21  1  0  0  0  0
 19  9  1  0  0  0  0
  6  8  2  0  0  0  0
 10 12  2  0  0  0  0
M  END
>  <Code> (P1202134)
P1202134

>  <Number of H-Donors> (P1202134)
1

>  <Number of H-Acceptors> (P1202134)
3

>  <Number of Rotatable bonds> (P1202134)
4

>  <CLogP> (P1202134)
4.000000000000000e+000

>  <Number of Rings> (P1202134)
3

>  <PSA> (P1202134)
3.050000000000000e+001

$$$$

  -ISIS-  11102212342D

 24 26  0  0  0  0  0  0  0  0999 V2000
    5.9750   -9.4875    0.0000 C   0  0  0  0  0  0  0  0  0  0  0  0
    6.6917   -9.9000    0.0000 C   0  0  3  0  0  0  0  0  0  0  0  0
    8.1167  -10.7167    0.0000 C   0  0  3  0  0  0  0  0  0  0  0  0
    6.6917  -10.7250    0.0000 C   0  0  0  0  0  0  0  0  0  0  0  0
    7.4042  -11.1292    0.0000 C   0  0  0  0  0  0  0  0  0  0  0  0
    5.2625   -9.8917    0.0000 C   0  0  0  0  0  0  0  0  0  0  0  0
    5.9792   -8.6542    0.0000 C   0  0  0  0  0  0  0  0  0  0  0  0
    4.5500   -9.4792    0.0000 C   0  0  0  0  0  0  0  0  0  0  0  0
    7.4167   -9.4875    0.0000 N   0  0  0  0  0  0  0  0  0  0  0  0
    5.2625   -8.2417    0.0000 C   0  0  0  0  0  0  0  0  0  0  0  0
    4.5500   -8.6542    0.0000 C   0  0  0  0  0  0  0  0  0  0  0  0
    8.8292  -10.3042    0.0000 F   0  0  0  0  0  0  0  0  0  0  0  0
    8.5292  -11.4292    0.0000 F   0  0  0  0  0  0  0  0  0  0  0  0
    7.7000  -10.0042    0.0000 F   0  0  0  0  0  0  0  0  0  0  0  0
    7.4167   -8.6542    0.0000 C   0  0  0  0  0  0  0  0  0  0  0  0
    3.8292   -9.8917    0.0000 O   0  0  0  0  0  0  0  0  0  0  0  0
    3.8375   -8.2417    0.0000 O   0  0  0  0  0  0  0  0  0  0  0  0
    5.9750  -11.1292    0.0000 C   0  0  0  0  0  0  0  0  0  0  0  0
    6.6917   -8.2292    0.0000 C   0  0  0  0  0  0  0  0  0  0  0  0
    7.4042  -11.9542    0.0000 C   0  0  0  0  0  0  0  0  0  0  0  0
    3.1167   -9.4792    0.0000 C   0  0  0  0  0  0  0  0  0  0  0  0
    3.1167   -8.6542    0.0000 C   0  0  0  0  0  0  0  0  0  0  0  0
    5.9667  -11.9542    0.0000 C   0  0  0  0  0  0  0  0  0  0  0  0
    6.6875  -12.3667    0.0000 C   0  0  0  0  0  0  0  0  0  0  0  0
  2  1  1  0  0  0  0
  3  5  1  0  0  0  0
  4  2  1  0  0  0  0
  5  4  1  0  0  0  0
  6  1  2  0  0  0  0
  7  1  1  0  0  0  0
  8  6  1  0  0  0  0
  9  2  1  0  0  0  0
 10  7  2  0  0  0  0
 11 10  1  0  0  0  0
 12  3  1  0  0  0  0
 13  3  1  0  0  0  0
 14  3  1  0  0  0  0
 15 19  1  0  0  0  0
 16  8  1  0  0  0  0
 17 11  1  0  0  0  0
 18  4  2  0  0  0  0
 19  7  1  0  0  0  0
 20  5  2  0  0  0  0
 21 16  1  0  0  0  0
 22 17  1  0  0  0  0
 23 18  1  0  0  0  0
 24 23  2  0  0  0  0
 15  9  1  0  0  0  0
  8 11  2  0  0  0  0
 24 20  1  0  0  0  0
M  END
>  <Code> (P1202133)
P1202133

>  <Number of H-Donors> (P1202133)
1

>  <Number of H-Acceptors> (P1202133)
3

>  <Number of Rotatable bonds> (P1202133)
4

>  <CLogP> (P1202133)
4.000000000000000e+000

>  <Number of Rings> (P1202133)
3

>  <PSA> (P1202133)
3.050000000000000e+001

$$$$

  -ISIS-  11102212342D

 21 22  0  0  0  0  0  0  0  0999 V2000
   -0.9125   -1.4042    0.0000 C   0  0  0  0  0  0  0  0  0  0  0  0
   -1.5750   -1.8875    0.0000 C   0  0  0  0  0  0  0  0  0  0  0  0
   -1.3208   -2.6750    0.0000 N   0  0  0  0  0  0  0  0  0  0  0  0
   -0.9125   -0.5417    0.0000 C   0  0  0  0  0  0  0  0  0  0  0  0
   -0.2458   -1.8875    0.0000 S   0  0  0  0  0  0  0  0  0  0  0  0
   -0.5000   -2.6667    0.0000 C   0  0  0  0  0  0  0  0  0  0  0  0
   -0.1958   -0.1375    0.0000 N   0  0  0  0  0  0  0  0  0  0  0  0
   -1.6583   -0.1042    0.0000 O   0  0  0  0  0  0  0  0  0  0  0  0
    0.0542   -3.2792    0.0000 C   0  0  0  0  0  0  0  0  0  0  0  0
    0.8542   -3.1042    0.0000 O   0  0  0  0  0  0  0  0  0  0  0  0
    1.4125   -3.7167    0.0000 C   0  0  0  0  0  0  0  0  0  0  0  0
   -2.3458   -1.6292    0.0000 C   0  0  0  0  0  0  0  0  0  0  0  0
    2.5167   -4.9375    0.0000 C   0  0  0  0  0  0  0  0  0  0  0  0
    1.1625   -4.5000    0.0000 C   0  0  0  0  0  0  0  0  0  0  0  0
    2.2167   -3.5417    0.0000 C   0  0  0  0  0  0  0  0  0  0  0  0
    2.7667   -4.1542    0.0000 C   0  0  0  0  0  0  0  0  0  0  0  0
    1.7167   -5.1000    0.0000 C   0  0  0  0  0  0  0  0  0  0  0  0
   -0.1958    0.6875    0.0000 C   0  0  3  0  0  0  0  0  0  0  0  0
    3.0667   -5.5417    0.0000 C   0  0  0  0  0  0  0  0  0  0  0  0
    0.5167    1.1000    0.0000 C   0  0  0  0  0  0  0  0  0  0  0  0
   -0.9125    1.1000    0.0000 C   0  0  0  0  0  0  0  0  0  0  0  0
  2  1  2  0  0  0  0
  3  2  1  0  0  0  0
  4  1  1  0  0  0  0
  5  1  1  0  0  0  0
  6  5  1  0  0  0  0
  7  4  1  0  0  0  0
  8  4  2  0  0  0  0
  9  6  1  0  0  0  0
 10  9  1  0  0  0  0
 11 10  1  0  0  0  0
 12  2  1  0  0  0  0
 13 16  1  0  0  0  0
 14 11  2  0  0  0  0
 15 11  1  0  0  0  0
 16 15  2  0  0  0  0
 17 14  1  0  0  0  0
 18  7  1  0  0  0  0
 19 13  1  0  0  0  0
 20 18  1  0  0  0  0
 21 18  1  0  0  0  0
  3  6  2  0  0  0  0
 17 13  2  0  0  0  0
M  END
>  <Code> (P1196925)
P1196925

>  <Number of H-Donors> (P1196925)
1

>  <Number of H-Acceptors> (P1196925)
3

>  <Number of Rotatable bonds> (P1196925)
5

>  <CLogP> (P1196925)
3.000000000000000e+000

>  <Number of Rings> (P1196925)
2

>  <PSA> (P1196925)
7.950000000000000e+001

$$$$

  -ISIS-  11102212342D

 18 20  0  0  0  0  0  0  0  0999 V2000
    5.4292    0.8458    0.0000 N   0  0  3  0  0  0  0  0  0  0  0  0
    5.7917    2.2333    0.0000 C   0  0  0  0  0  0  0  0  0  0  0  0
    6.2667   -0.1792    0.0000 N   0  0  0  0  0  0  0  0  0  0  0  0
    5.5667    3.0333    0.0000 N   0  3  0  0  0  0  0  0  0  0  0  0
    6.2250    0.6375    0.0000 C   0  0  0  0  0  0  0  0  0  0  0  0
    5.5042   -0.4792    0.0000 C   0  0  0  0  0  0  0  0  0  0  0  0
    5.2042    1.6458    0.0000 C   0  0  0  0  0  0  0  0  0  0  0  0
    4.9875    0.1583    0.0000 C   0  0  0  0  0  0  0  0  0  0  0  0
    6.5875    2.0208    0.0000 C   0  0  0  0  0  0  0  0  0  0  0  0
    6.8042    1.2208    0.0000 C   0  0  0  0  0  0  0  0  0  0  0  0
    6.1542    3.6125    0.0000 O   0  5  0  0  0  0  0  0  0  0  0  0
    4.7750    3.2375    0.0000 O   0  0  0  0  0  0  0  0  0  0  0  0
    5.2917   -1.2750    0.0000 C   0  0  0  0  0  0  0  0  0  0  0  0
    4.5000   -1.4875    0.0000 C   0  0  0  0  0  0  0  0  0  0  0  0
    5.8792   -1.8500    0.0000 C   0  0  0  0  0  0  0  0  0  0  0  0
    5.6750   -2.6417    0.0000 C   0  0  0  0  0  0  0  0  0  0  0  0
    4.2917   -2.2792    0.0000 C   0  0  0  0  0  0  0  0  0  0  0  0
    4.8750   -2.8667    0.0000 C   0  0  0  0  0  0  0  0  0  0  0  0
  2  7  2  0  0  0  0
  3  5  2  0  0  0  0
  4  2  1  0  0  0  0
  5  1  1  0  0  0  0
  6  8  2  0  0  0  0
  7  1  1  0  0  0  0
  8  1  1  0  0  0  0
  9  2  1  0  0  0  0
 10  5  1  0  0  0  0
 11  4  1  0  0  0  0
 12  4  2  0  0  0  0
 13  6  1  0  0  0  0
 14 13  2  0  0  0  0
 15 13  1  0  0  0  0
 16 15  2  0  0  0  0
 17 14  1  0  0  0  0
 18 16  1  0  0  0  0
  3  6  1  0  0  0  0
  9 10  2  0  0  0  0
 18 17  2  0  0  0  0
M  CHG  2   4   1  11  -1
M  END
>  <Code> (P1182338)
P1182338

>  <Number of H-Donors> (P1182338)
0

>  <Number of H-Acceptors> (P1182338)
3

>  <Number of Rotatable bonds> (P1182338)
2

>  <CLogP> (P1182338)
2.400000000000000e+000

>  <Number of Rings> (P1182338)
3

>  <PSA> (P1182338)
6.309999999999999e+001

$$$$

  -ISIS-  11102212342D

 17 18  0  0  0  0  0  0  0  0999 V2000
    2.8125   -1.3417    0.0000 C   0  0  0  0  0  0  0  0  0  0  0  0
    3.6375   -1.3167    0.0000 N   0  0  0  0  0  0  0  0  0  0  0  0
    2.3125   -0.6792    0.0000 S   0  0  3  0  0  0  0  0  0  0  0  0
    2.5792   -2.1292    0.0000 N   0  0  0  0  0  0  0  0  0  0  0  0
    3.9042   -2.1000    0.0000 C   0  0  0  0  0  0  0  0  0  0  0  0
    3.2542   -2.6000    0.0000 S   0  0  0  0  0  0  0  0  0  0  0  0
    1.8917    0.0333    0.0000 C   0  0  0  0  0  0  0  0  0  0  0  0
    3.0250   -0.2667    0.0000 O   0  0  0  0  0  0  0  0  0  0  0  0
    1.6042   -1.1167    0.0000 O   0  0  0  0  0  0  0  0  0  0  0  0
    4.7000   -2.3417    0.0000 N   0  0  0  0  0  0  0  0  0  0  0  0
    2.3042    0.7500    0.0000 C   0  0  0  0  0  0  0  0  0  0  0  0
    3.1292    2.1833    0.0000 C   0  0  0  0  0  0  0  0  0  0  0  0
    3.5375    2.8958    0.0000 F   0  0  0  0  0  0  0  0  0  0  0  0
    1.8917    1.4583    0.0000 C   0  0  0  0  0  0  0  0  0  0  0  0
    3.1292    0.7500    0.0000 C   0  0  0  0  0  0  0  0  0  0  0  0
    3.5417    1.4625    0.0000 C   0  0  0  0  0  0  0  0  0  0  0  0
    2.3000    2.1750    0.0000 C   0  0  0  0  0  0  0  0  0  0  0  0
  2  1  1  0  0  0  0
  3  1  1  0  0  0  0
  4  1  2  0  0  0  0
  5  2  2  0  0  0  0
  6  4  1  0  0  0  0
  7  3  1  0  0  0  0
  8  3  2  0  0  0  0
  9  3  2  0  0  0  0
 10  5  1  0  0  0  0
 11  7  1  0  0  0  0
 12 16  2  0  0  0  0
 13 12  1  0  0  0  0
 14 11  1  0  0  0  0
 15 11  2  0  0  0  0
 16 15  1  0  0  0  0
 17 14  2  0  0  0  0
  5  6  1  0  0  0  0
 12 17  1  0  0  0  0
M  END
>  <Code> (P1178589)
P1178589

>  <Number of H-Donors> (P1178589)
1

>  <Number of H-Acceptors> (P1178589)
5

>  <Number of Rotatable bonds> (P1178589)
3

>  <CLogP> (P1178589)
1.800000000000000e+000

>  <Number of Rings> (P1178589)
2

>  <PSA> (P1178589)
1.226000000000000e+002

$$$$

  -ISIS-  11102212342D

 16 17  0  0  0  0  0  0  0  0999 V2000
    3.2667    0.8583    0.0000 C   0  0  0  0  0  0  0  0  0  0  0  0
    2.4667    0.8583    0.0000 N   0  0  0  0  0  0  0  0  0  0  0  0
    3.7542    1.5250    0.0000 S   0  0  3  0  0  0  0  0  0  0  0  0
    3.5292    0.0625    0.0000 N   0  0  0  0  0  0  0  0  0  0  0  0
    2.2042    0.0833    0.0000 C   0  0  0  0  0  0  0  0  0  0  0  0
    2.8542   -0.4042    0.0000 S   0  0  0  0  0  0  0  0  0  0  0  0
    4.2167    2.2083    0.0000 C   0  0  0  0  0  0  0  0  0  0  0  0
    3.0917    2.0208    0.0000 O   0  0  0  0  0  0  0  0  0  0  0  0
    4.4917    1.0625    0.0000 O   0  0  0  0  0  0  0  0  0  0  0  0
    1.4167   -0.1500    0.0000 N   0  0  0  0  0  0  0  0  0  0  0  0
    5.0417    2.1583    0.0000 C   0  0  0  0  0  0  0  0  0  0  0  0
    5.4042    1.4083    0.0000 C   0  0  0  0  0  0  0  0  0  0  0  0
    5.4917    2.8333    0.0000 C   0  0  0  0  0  0  0  0  0  0  0  0
    6.3167    2.7833    0.0000 C   0  0  0  0  0  0  0  0  0  0  0  0
    6.2292    1.3583    0.0000 C   0  0  0  0  0  0  0  0  0  0  0  0
    6.6875    2.0458    0.0000 C   0  0  0  0  0  0  0  0  0  0  0  0
  2  1  1  0  0  0  0
  3  1  1  0  0  0  0
  4  1  2  0  0  0  0
  5  2  2  0  0  0  0
  6  4  1  0  0  0  0
  7  3  1  0  0  0  0
  8  3  2  0  0  0  0
  9  3  2  0  0  0  0
 10  5  1  0  0  0  0
 11  7  1  0  0  0  0
 12 11  2  0  0  0  0
 13 11  1  0  0  0  0
 14 13  2  0  0  0  0
 15 12  1  0  0  0  0
 16 14  1  0  0  0  0
  5  6  1  0  0  0  0
 15 16  2  0  0  0  0
M  END
>  <Code> (P1178582)
P1178582

>  <Number of H-Donors> (P1178582)
1

>  <Number of H-Acceptors> (P1178582)
5

>  <Number of Rotatable bonds> (P1178582)
3

>  <CLogP> (P1178582)
1.600000000000000e+000

>  <Number of Rings> (P1178582)
2

>  <PSA> (P1178582)
1.226000000000000e+002

$$$$

  -ISIS-  11102212342D

 17 18  0  0  0  0  0  0  0  0999 V2000
    3.4542   -0.9500    0.0000 C   0  0  0  0  0  0  0  0  0  0  0  0
    4.1750   -1.3625    0.0000 N   0  0  0  0  0  0  0  0  0  0  0  0
    2.7417   -1.3625    0.0000 C   0  0  0  0  0  0  0  0  0  0  0  0
    4.1750   -2.1917    0.0000 C   0  0  0  0  0  0  0  0  0  0  0  0
    2.0292   -0.9542    0.0000 C   0  0  0  0  0  0  0  0  0  0  0  0
    3.4542   -2.6042    0.0000 N   0  0  0  0  0  0  0  0  0  0  0  0
    3.4542   -0.1250    0.0000 N   0  0  0  0  0  0  0  0  0  0  0  0
    2.7417   -2.1917    0.0000 C   0  0  0  0  0  0  0  0  0  0  0  0
    1.3167   -1.3667    0.0000 O   0  0  0  0  0  0  0  0  0  0  0  0
    4.8917   -2.6042    0.0000 S   0  0  0  0  0  0  0  0  0  0  0  0
    2.0292   -0.1292    0.0000 O   0  0  0  0  0  0  0  0  0  0  0  0
    4.1667    0.2875    0.0000 C   0  0  3  0  0  0  0  0  0  0  0  0
    4.8917   -3.4292    0.0000 C   0  0  0  0  0  0  0  0  0  0  0  0
    4.1667    1.1125    0.0000 C   0  0  0  0  0  0  0  0  0  0  0  0
    4.9542    0.0333    0.0000 C   0  0  0  0  0  0  0  0  0  0  0  0
    5.4375    0.7083    0.0000 C   0  0  0  0  0  0  0  0  0  0  0  0
    4.9500    1.3708    0.0000 C   0  0  0  0  0  0  0  0  0  0  0  0
  2  1  2  0  0  0  0
  3  1  1  0  0  0  0
  4  2  1  0  0  0  0
  5  3  1  0  0  0  0
  6  8  1  0  0  0  0
  7  1  1  0  0  0  0
  8  3  2  0  0  0  0
  9  5  2  0  0  0  0
 10  4  1  0  0  0  0
 11  5  1  0  0  0  0
 12  7  1  0  0  0  0
 13 10  1  0  0  0  0
 14 12  1  0  0  0  0
 15 12  1  0  0  0  0
 16 15  1  0  0  0  0
 17 14  1  0  0  0  0
  4  6  2  0  0  0  0
 17 16  1  0  0  0  0
M  END
>  <Code> (P1178126)
P1178126

>  <Number of H-Donors> (P1178126)
2

>  <Number of H-Acceptors> (P1178126)
6

>  <Number of Rotatable bonds> (P1178126)
4

>  <CLogP> (P1178126)
2.000000000000000e+000

>  <Number of Rings> (P1178126)
2

>  <PSA> (P1178126)
1.004000000000000e+002

$$$$

  -ISIS-  11102212342D

 23 25  0  0  0  0  0  0  0  0999 V2000
    3.3000   -3.0375    0.0000 C   0  0  0  0  0  0  0  0  0  0  0  0
    3.9500   -3.4125    0.0000 N   0  0  3  0  0  0  0  0  0  0  0  0
    3.2875   -2.2000    0.0000 N   0  0  0  0  0  0  0  0  0  0  0  0
    5.2625   -3.4125    0.0000 N   0  0  0  0  0  0  0  0  0  0  0  0
    3.9500   -4.1667    0.0000 C   0  0  0  0  0  0  0  0  0  0  0  0
    2.5875   -3.4625    0.0000 N   0  0  0  0  0  0  0  0  0  0  0  0
    4.6000   -4.5417    0.0000 C   0  0  0  0  0  0  0  0  0  0  0  0
    2.5625   -1.8000    0.0000 C   0  0  0  0  0  0  0  0  0  0  0  0
    5.2542   -4.1750    0.0000 C   0  0  0  0  0  0  0  0  0  0  0  0
    1.8500   -2.2250    0.0000 C   0  0  0  0  0  0  0  0  0  0  0  0
    1.8625   -3.0625    0.0000 C   0  0  0  0  0  0  0  0  0  0  0  0
    2.5500   -0.9667    0.0000 N   0  0  0  0  0  0  0  0  0  0  0  0
    1.8292   -0.5625    0.0000 C   0  0  0  0  0  0  0  0  0  0  0  0
    1.8167    0.2583    0.0000 C   0  0  0  0  0  0  0  0  0  0  0  0
    1.8042    1.9125    0.0000 C   0  0  0  0  0  0  0  0  0  0  0  0
    3.2875   -4.5500    0.0000 C   0  0  0  0  0  0  0  0  0  0  0  0
    1.1000    0.6583    0.0000 C   0  0  0  0  0  0  0  0  0  0  0  0
    2.5375    0.6833    0.0000 C   0  0  0  0  0  0  0  0  0  0  0  0
    1.0875    1.4958    0.0000 C   0  0  0  0  0  0  0  0  0  0  0  0
    2.5250    1.5083    0.0000 C   0  0  0  0  0  0  0  0  0  0  0  0
    5.9125   -4.5500    0.0000 C   0  0  0  0  0  0  0  0  0  0  0  0
    1.1417   -3.4792    0.0000 C   0  0  0  0  0  0  0  0  0  0  0  0
    1.7917    2.7458    0.0000 C   0  0  0  0  0  0  0  0  0  0  0  0
  2  1  1  0  0  0  0
  3  1  2  0  0  0  0
  4  2  1  0  0  0  0
  5  2  1  0  0  0  0
  6  1  1  0  0  0  0
  7  5  2  0  0  0  0
  8  3  1  0  0  0  0
  9  4  2  0  0  0  0
 10 11  1  0  0  0  0
 11  6  2  0  0  0  0
 12  8  1  0  0  0  0
 13 12  1  0  0  0  0
 14 13  1  0  0  0  0
 15 20  2  0  0  0  0
 16  5  1  0  0  0  0
 17 14  1  0  0  0  0
 18 14  2  0  0  0  0
 19 17  2  0  0  0  0
 20 18  1  0  0  0  0
 21  9  1  0  0  0  0
 22 11  1  0  0  0  0
 23 15  1  0  0  0  0
 10  8  2  0  0  0  0
  9  7  1  0  0  0  0
 15 19  1  0  0  0  0
M  END
>  <Code> (P1161774)
P1161774

>  <Number of H-Donors> (P1161774)
1

>  <Number of H-Acceptors> (P1161774)
4

>  <Number of Rotatable bonds> (P1161774)
4

>  <CLogP> (P1161774)
3.900000000000000e+000

>  <Number of Rings> (P1161774)
3

>  <PSA> (P1161774)
5.559999999999999e+001

$$$$

  -ISIS-  11102212342D

 31 35  0  0  0  0  0  0  0  0999 V2000
    5.7750   -4.2250    0.0000 C   0  0  0  0  0  0  0  0  0  0  0  0
    5.0625   -4.6375    0.0000 C   0  0  0  0  0  0  0  0  0  0  0  0
    5.7750   -3.3875    0.0000 C   0  0  0  0  0  0  0  0  0  0  0  0
    4.3375   -4.2250    0.0000 C   0  0  0  0  0  0  0  0  0  0  0  0
    4.3375   -3.3875    0.0000 C   0  0  0  0  0  0  0  0  0  0  0  0
    2.1250   -4.4750    0.0000 C   0  0  0  0  0  0  0  0  0  0  0  0
    2.9125   -4.2167    0.0000 C   0  0  0  0  0  0  0  0  0  0  0  0
    5.0542   -2.9667    0.0000 O   0  0  0  0  0  0  0  0  0  0  0  0
    9.3500   -4.6375    0.0000 N   0  0  3  0  0  0  0  0  0  0  0  0
    1.6375   -3.8125    0.0000 C   0  0  0  0  0  0  0  0  0  0  0  0
    2.9042   -3.3917    0.0000 C   0  0  0  0  0  0  0  0  0  0  0  0
    3.6250   -4.6292    0.0000 C   0  0  0  0  0  0  0  0  0  0  0  0
    2.1250   -3.1417    0.0000 O   0  0  0  0  0  0  0  0  0  0  0  0
   10.2500   -5.6250    0.0000 N   0  0  0  0  0  0  0  0  0  0  0  0
   10.6625   -4.9125    0.0000 N   0  0  0  0  0  0  0  0  0  0  0  0
    3.6250   -2.9750    0.0000 C   0  0  0  0  0  0  0  0  0  0  0  0
    9.4417   -5.4542    0.0000 C   0  0  0  0  0  0  0  0  0  0  0  0
   10.1000   -4.3000    0.0000 C   0  0  0  0  0  0  0  0  0  0  0  0
    8.6417   -4.2250    0.0000 N   0  0  0  0  0  0  0  0  0  0  0  0
    6.4875   -4.6375    0.0000 C   0  0  0  0  0  0  0  0  0  0  0  0
    7.9250   -4.6375    0.0000 C   0  0  0  0  0  0  0  0  0  0  0  0
    6.4917   -2.9792    0.0000 O   0  0  0  0  0  0  0  0  0  0  0  0
    1.8750   -5.2625    0.0000 C   0  0  0  0  0  0  0  0  0  0  0  0
    7.9250   -5.4625    0.0000 O   0  0  0  0  0  0  0  0  0  0  0  0
    7.2042   -4.2250    0.0000 C   0  0  0  0  0  0  0  0  0  0  0  0
    5.0625   -5.4625    0.0000 C   0  0  0  0  0  0  0  0  0  0  0  0
    2.4250   -5.8667    0.0000 C   0  0  0  0  0  0  0  0  0  0  0  0
    1.0667   -5.4375    0.0000 C   0  0  0  0  0  0  0  0  0  0  0  0
    0.8125   -6.2167    0.0000 C   0  0  0  0  0  0  0  0  0  0  0  0
    2.1792   -6.6500    0.0000 C   0  0  0  0  0  0  0  0  0  0  0  0
    1.3667   -6.8292    0.0000 C   0  0  0  0  0  0  0  0  0  0  0  0
  2  1  2  0  0  0  0
  3  1  1  0  0  0  0
  4  2  1  0  0  0  0
  5  8  1  0  0  0  0
  6  7  1  0  0  0  0
  7 12  1  0  0  0  0
  8  3  1  0  0  0  0
  9 19  1  0  0  0  0
 10  6  2  0  0  0  0
 11 16  1  0  0  0  0
 12  4  2  0  0  0  0
 13 11  1  0  0  0  0
 14 17  2  0  0  0  0
 15 18  2  0  0  0  0
 16  5  2  0  0  0  0
 17  9  1  0  0  0  0
 18  9  1  0  0  0  0
 19 21  1  0  0  0  0
 20  1  1  0  0  0  0
 21 25  1  0  0  0  0
 22  3  2  0  0  0  0
 23  6  1  0  0  0  0
 24 21  2  0  0  0  0
 25 20  1  0  0  0  0
 26  2  1  0  0  0  0
 27 23  1  0  0  0  0
 28 23  2  0  0  0  0
 29 28  1  0  0  0  0
 30 27  2  0  0  0  0
 31 29  2  0  0  0  0
  4  5  1  0  0  0  0
  7 11  2  0  0  0  0
 13 10  1  0  0  0  0
 14 15  1  0  0  0  0
 30 31  1  0  0  0  0
M  END
>  <Code> (P1159369)
P1159369

>  <Number of H-Donors> (P1159369)
1

>  <Number of H-Acceptors> (P1159369)
5

>  <Number of Rotatable bonds> (P1159369)
5

>  <CLogP> (P1159369)
3.000000000000000e+000

>  <Number of Rings> (P1159369)
5

>  <PSA> (P1159369)
9.930000000000000e+001

$$$$

  -ISIS-  11102212342D

 23 26  0  0  0  0  0  0  0  0999 V2000
    8.7417   -4.8375    0.0000 C   0  0  0  0  0  0  0  0  0  0  0  0
   10.8042   -2.7042    0.0000 N   0  0  3  0  0  0  0  0  0  0  0  0
    8.2542   -4.1750    0.0000 N   0  0  0  0  0  0  0  0  0  0  0  0
    9.5667   -4.8417    0.0000 N   0  0  0  0  0  0  0  0  0  0  0  0
    9.9750   -4.1292    0.0000 C   0  0  0  0  0  0  0  0  0  0  0  0
   11.3125   -3.3500    0.0000 N   0  0  0  0  0  0  0  0  0  0  0  0
    9.5667   -3.4250    0.0000 C   0  0  0  0  0  0  0  0  0  0  0  0
   12.0875   -3.0542    0.0000 N   0  0  0  0  0  0  0  0  0  0  0  0
   12.0500   -2.2417    0.0000 N   0  0  0  0  0  0  0  0  0  0  0  0
    8.2542   -5.5000    0.0000 N   0  0  0  0  0  0  0  0  0  0  0  0
    9.9750   -2.7042    0.0000 C   0  0  0  0  0  0  0  0  0  0  0  0
   11.2625   -2.0292    0.0000 C   0  0  0  0  0  0  0  0  0  0  0  0
    7.4792   -4.4292    0.0000 C   0  0  0  0  0  0  0  0  0  0  0  0
    7.4792   -5.2542    0.0000 C   0  0  0  0  0  0  0  0  0  0  0  0
   10.8042   -4.1292    0.0000 O   0  0  0  0  0  0  0  0  0  0  0  0
    8.7375   -3.4250    0.0000 C   0  0  0  0  0  0  0  0  0  0  0  0
    9.5667   -1.9917    0.0000 C   0  0  0  0  0  0  0  0  0  0  0  0
    6.7667   -4.0167    0.0000 C   0  0  0  0  0  0  0  0  0  0  0  0
    6.7667   -5.6542    0.0000 C   0  0  0  0  0  0  0  0  0  0  0  0
    8.3250   -2.7125    0.0000 C   0  0  0  0  0  0  0  0  0  0  0  0
    8.7375   -1.9917    0.0000 C   0  0  0  0  0  0  0  0  0  0  0  0
    6.0417   -5.2542    0.0000 C   0  0  0  0  0  0  0  0  0  0  0  0
    6.0417   -4.4292    0.0000 C   0  0  0  0  0  0  0  0  0  0  0  0
  2 11  1  0  0  0  0
  3  1  2  0  0  0  0
  4  1  1  0  0  0  0
  5  4  1  0  0  0  0
  6  2  1  0  0  0  0
  7  5  1  0  0  0  0
  8  6  2  0  0  0  0
  9 12  2  0  0  0  0
 10  1  1  0  0  0  0
 11  7  2  0  0  0  0
 12  2  1  0  0  0  0
 13  3  1  0  0  0  0
 14 10  1  0  0  0  0
 15  5  2  0  0  0  0
 16  7  1  0  0  0  0
 17 11  1  0  0  0  0
 18 13  1  0  0  0  0
 19 14  1  0  0  0  0
 20 16  2  0  0  0  0
 21 20  1  0  0  0  0
 22 19  2  0  0  0  0
 23 18  2  0  0  0  0
 14 13  2  0  0  0  0
 23 22  1  0  0  0  0
 21 17  2  0  0  0  0
  8  9  1  0  0  0  0
M  END
>  <Code> (P1159118)
P1159118

>  <Number of H-Donors> (P1159118)
2

>  <Number of H-Acceptors> (P1159118)
5

>  <Number of Rotatable bonds> (P1159118)
3

>  <CLogP> (P1159118)
1.600000000000000e+000

>  <Number of Rings> (P1159118)
4

>  <PSA> (P1159118)
1.014000000000000e+002

$$$$

  -ISIS-  11102212342D

 23 24  0  0  0  0  0  0  0  0999 V2000
    4.5167   -6.3792    0.0000 N   0  0  3  0  0  0  0  0  0  0  0  0
    4.5167   -7.2167    0.0000 C   0  0  0  0  0  0  0  0  0  0  0  0
    3.8000   -5.9625    0.0000 C   0  0  0  0  0  0  0  0  0  0  0  0
    3.0875   -6.3792    0.0000 C   0  0  0  0  0  0  0  0  0  0  0  0
    3.8000   -7.6250    0.0000 N   0  0  0  0  0  0  0  0  0  0  0  0
    3.0792   -7.2042    0.0000 C   0  0  0  0  0  0  0  0  0  0  0  0
    9.5042   -5.9875    0.0000 C   0  0  0  0  0  0  0  0  0  0  0  0
    8.0792   -5.9875    0.0000 N   0  0  0  0  0  0  0  0  0  0  0  0
    7.3667   -6.3917    0.0000 C   0  0  0  0  0  0  0  0  0  0  0  0
    5.2292   -7.6292    0.0000 O   0  0  0  0  0  0  0  0  0  0  0  0
    3.8000   -5.1375    0.0000 O   0  0  0  0  0  0  0  0  0  0  0  0
    8.7917   -6.4000    0.0000 C   0  0  1  0  0  0  0  0  0  0  0  0
    9.5042   -5.1667    0.0000 O   0  0  0  0  0  0  0  0  0  0  0  0
    7.3667   -7.2167    0.0000 O   0  0  0  0  0  0  0  0  0  0  0  0
    5.2292   -5.9792    0.0000 C   0  0  0  0  0  0  0  0  0  0  0  0
   10.2167   -6.4042    0.0000 O   0  0  0  0  0  0  0  0  0  0  0  0
    2.3667   -5.9667    0.0000 C   0  0  0  0  0  0  0  0  0  0  0  0
    2.3667   -7.6250    0.0000 C   0  0  0  0  0  0  0  0  0  0  0  0
    5.9417   -6.3875    0.0000 C   0  0  0  0  0  0  0  0  0  0  0  0
    6.6542   -5.9792    0.0000 C   0  0  0  0  0  0  0  0  0  0  0  0
    8.7875   -7.2250    0.0000 C   0  0  0  0  0  0  0  0  0  0  0  0
    1.6542   -6.3792    0.0000 C   0  0  0  0  0  0  0  0  0  0  0  0
    1.6542   -7.2167    0.0000 C   0  0  0  0  0  0  0  0  0  0  0  0
  2  1  1  0  0  0  0
  3  1  1  0  0  0  0
  4  3  1  0  0  0  0
  5  2  1  0  0  0  0
  6  4  1  0  0  0  0
  7 12  1  0  0  0  0
  8  9  1  0  0  0  0
  9 20  1  0  0  0  0
 10  2  2  0  0  0  0
 11  3  2  0  0  0  0
 12  8  1  0  0  0  0
 13  7  2  0  0  0  0
 14  9  2  0  0  0  0
 15  1  1  0  0  0  0
 16  7  1  0  0  0  0
 17  4  2  0  0  0  0
 18  6  2  0  0  0  0
 19 15  1  0  0  0  0
 20 19  1  0  0  0  0
 12 21  1  6  0  0  0
 22 17  1  0  0  0  0
 23 22  2  0  0  0  0
  6  5  1  0  0  0  0
 18 23  1  0  0  0  0
M  END
>  <Code> (P1157625)
P1157625

>  <Number of H-Donors> (P1157625)
3

>  <Number of H-Acceptors> (P1157625)
5

>  <Number of Rotatable bonds> (P1157625)
6

>  <CLogP> (P1157625)
4.000000000000000e-001

>  <Number of Rings> (P1157625)
2

>  <PSA> (P1157625)
1.158000000000000e+002

$$$$

  -ISIS-  11102212342D

 18 20  0  0  0  0  0  0  0  0999 V2000
    0.1542    0.4125    0.0000 C   0  0  0  0  0  0  0  0  0  0  0  0
    0.9417    0.6708    0.0000 N   0  0  0  0  0  0  0  0  0  0  0  0
   -0.5583    0.8375    0.0000 C   0  0  0  0  0  0  0  0  0  0  0  0
    0.1542   -0.4042    0.0000 N   0  0  3  0  0  0  0  0  0  0  0  0
    1.4167    0.0125    0.0000 C   0  0  0  0  0  0  0  0  0  0  0  0
    0.9417   -0.6542    0.0000 C   0  0  0  0  0  0  0  0  0  0  0  0
   -0.5500    1.6625    0.0000 C   0  0  0  0  0  0  0  0  0  0  0  0
   -1.2833    0.4125    0.0000 C   0  0  0  0  0  0  0  0  0  0  0  0
   -0.5583   -0.8292    0.0000 C   0  0  0  0  0  0  0  0  0  0  0  0
   -1.2833   -0.4042    0.0000 C   0  0  0  0  0  0  0  0  0  0  0  0
    2.2417    0.0208    0.0000 C   0  0  0  0  0  0  0  0  0  0  0  0
   -1.1208    1.9958    0.0000 O   0  0  0  0  0  0  0  0  0  0  0  0
    0.0167    1.9875    0.0000 O   0  0  0  0  0  0  0  0  0  0  0  0
    2.7125   -0.6542    0.0000 C   0  0  0  0  0  0  0  0  0  0  0  0
    2.5917    0.7708    0.0000 C   0  0  0  0  0  0  0  0  0  0  0  0
    3.4167    0.8333    0.0000 C   0  0  0  0  0  0  0  0  0  0  0  0
    3.5292   -0.5875    0.0000 C   0  0  0  0  0  0  0  0  0  0  0  0
    3.8875    0.1583    0.0000 C   0  0  0  0  0  0  0  0  0  0  0  0
  2  1  2  0  0  0  0
  3  1  1  0  0  0  0
  4  1  1  0  0  0  0
  5  2  1  0  0  0  0
  6  4  1  0  0  0  0
  7  3  1  0  0  0  0
  8  3  2  0  0  0  0
  9  4  1  0  0  0  0
 10  9  2  0  0  0  0
 11  5  1  0  0  0  0
 12  7  2  0  0  0  0
 13  7  1  0  0  0  0
 14 11  2  0  0  0  0
 15 11  1  0  0  0  0
 16 15  2  0  0  0  0
 17 14  1  0  0  0  0
 18 16  1  0  0  0  0
  6  5  2  0  0  0  0
  8 10  1  0  0  0  0
 17 18  2  0  0  0  0
M  END
>  <Code> (P1157246)
P1157246

>  <Number of H-Donors> (P1157246)
1

>  <Number of H-Acceptors> (P1157246)
3

>  <Number of Rotatable bonds> (P1157246)
2

>  <CLogP> (P1157246)
2.100000000000000e+000

>  <Number of Rings> (P1157246)
3

>  <PSA> (P1157246)
5.460000000000000e+001

$$$$

  -ISIS-  11102212342D

 16 17  0  0  0  0  0  0  0  0999 V2000
    7.4542   -0.5917    0.0000 C   0  0  0  0  0  0  0  0  0  0  0  0
    8.1542   -1.0167    0.0000 N   0  0  0  0  0  0  0  0  0  0  0  0
    6.7292   -0.9917    0.0000 N   0  0  0  0  0  0  0  0  0  0  0  0
    8.1417   -1.8417    0.0000 C   0  0  0  0  0  0  0  0  0  0  0  0
    6.7167   -1.8167    0.0000 C   0  0  0  0  0  0  0  0  0  0  0  0
    7.4292   -2.2417    0.0000 C   0  0  0  0  0  0  0  0  0  0  0  0
    8.8542   -2.2750    0.0000 C   0  0  0  0  0  0  0  0  0  0  0  0
    8.8417   -3.1000    0.0000 O   0  0  0  0  0  0  0  0  0  0  0  0
    5.9917   -2.2167    0.0000 C   0  0  0  0  0  0  0  0  0  0  0  0
    7.4667    0.2375    0.0000 O   0  0  0  0  0  0  0  0  0  0  0  0
    9.5792   -1.8792    0.0000 O   0  0  0  0  0  0  0  0  0  0  0  0
    5.9792   -3.0417    0.0000 C   0  0  0  0  0  0  0  0  0  0  0  0
    5.2917   -1.7917    0.0000 C   0  0  0  0  0  0  0  0  0  0  0  0
    5.2542   -3.4417    0.0000 C   0  0  0  0  0  0  0  0  0  0  0  0
    4.5667   -2.1917    0.0000 C   0  0  0  0  0  0  0  0  0  0  0  0
    4.5500   -3.0167    0.0000 C   0  0  0  0  0  0  0  0  0  0  0  0
  2  1  1  0  0  0  0
  3  1  2  0  0  0  0
  4  2  2  0  0  0  0
  5  3  1  0  0  0  0
  6  5  2  0  0  0  0
  7  4  1  0  0  0  0
  8  7  2  0  0  0  0
  9  5  1  0  0  0  0
 10  1  1  0  0  0  0
 11  7  1  0  0  0  0
 12  9  1  0  0  0  0
 13  9  2  0  0  0  0
 14 12  2  0  0  0  0
 15 13  1  0  0  0  0
 16 15  2  0  0  0  0
  4  6  1  0  0  0  0
 14 16  1  0  0  0  0
M  END
>  <Code> (P1146540)
P1146540

>  <Number of H-Donors> (P1146540)
2

>  <Number of H-Acceptors> (P1146540)
5

>  <Number of Rotatable bonds> (P1146540)
2

>  <CLogP> (P1146540)
2.300000000000000e+000

>  <Number of Rings> (P1146540)
2

>  <PSA> (P1146540)
8.330000000000000e+001

$$$$

  -ISIS-  11102212342D

 18 21  0  0  0  0  0  0  0  0999 V2000
    4.7875   -3.2500    0.0000 C   0  0  3  0  0  0  0  0  0  0  0  0
    4.0625   -5.3125    0.0000 N   0  0  0  0  0  0  0  0  0  0  0  0
    4.7875   -4.0667    0.0000 N   0  0  0  0  0  0  0  0  0  0  0  0
    4.0625   -4.4875    0.0000 C   0  0  0  0  0  0  0  0  0  0  0  0
    6.0292   -2.5375    0.0000 C   0  0  3  0  0  0  0  0  0  0  0  0
    4.6250   -1.9500    0.0000 C   0  0  3  0  0  0  0  0  0  0  0  0
    4.9875   -1.7292    0.0000 C   0  0  3  0  0  0  0  0  0  0  0  0
    4.2000   -2.6625    0.0000 C   0  0  0  0  0  0  0  0  0  0  0  0
    5.6125   -3.2500    0.0000 C   0  0  0  0  0  0  0  0  0  0  0  0
    4.5750   -2.4417    0.0000 C   0  0  0  0  0  0  0  0  0  0  0  0
    4.5750   -1.0125    0.0000 C   0  0  0  0  0  0  0  0  0  0  0  0
    5.8125   -1.7375    0.0000 C   0  0  0  0  0  0  0  0  0  0  0  0
    5.4500   -1.9500    0.0000 C   0  0  0  0  0  0  0  0  0  0  0  0
    3.3500   -5.7250    0.0000 C   0  0  0  0  0  0  0  0  0  0  0  0
    2.6375   -5.3042    0.0000 C   0  0  0  0  0  0  0  0  0  0  0  0
    3.3500   -4.0667    0.0000 C   0  0  0  0  0  0  0  0  0  0  0  0
    1.9250   -5.7167    0.0000 N   0  0  0  0  0  0  0  0  0  0  0  0
    2.6375   -4.4875    0.0000 C   0  0  0  0  0  0  0  0  0  0  0  0
  2  4  2  0  0  0  0
  3  1  1  0  0  0  0
  4  3  1  0  0  0  0
  5  9  1  0  0  0  0
  6  8  1  0  0  0  0
  7 10  1  0  0  0  0
  8  1  1  0  0  0  0
  9  1  1  0  0  0  0
 10  1  1  0  0  0  0
 11  7  1  0  0  0  0
 12  7  1  0  0  0  0
 13  5  1  0  0  0  0
 14  2  1  0  0  0  0
 15 18  1  0  0  0  0
 16  4  1  0  0  0  0
 17 15  1  0  0  0  0
 18 16  2  0  0  0  0
 12  5  1  0  0  0  0
 11  6  1  0  0  0  0
 13  6  1  0  0  0  0
 14 15  2  0  0  0  0
M  END
>  <Code> (P1121416)
P1121416

>  <Number of H-Donors> (P1121416)
2

>  <Number of H-Acceptors> (P1121416)
3

>  <Number of Rotatable bonds> (P1121416)
2

>  <CLogP> (P1121416)
2.000000000000000e+000

>  <Number of Rings> (P1121416)
4

>  <PSA> (P1121416)
5.090000000000000e+001

$$$$

  -ISIS-  11102212342D

 17 19  0  0  0  0  0  0  0  0999 V2000
    1.2500   -3.0917    0.0000 N   0  0  3  0  0  0  0  0  0  0  0  0
    2.1250   -2.0750    0.0000 N   0  0  0  0  0  0  0  0  0  0  0  0
    1.3125   -2.2750    0.0000 C   0  0  0  0  0  0  0  0  0  0  0  0
    2.5500   -2.7750    0.0000 C   0  0  0  0  0  0  0  0  0  0  0  0
    2.0167   -3.4042    0.0000 C   0  0  0  0  0  0  0  0  0  0  0  0
    0.5042   -3.4500    0.0000 C   0  0  0  0  0  0  0  0  0  0  0  0
    0.6250   -1.8000    0.0000 C   0  0  0  0  0  0  0  0  0  0  0  0
   -0.1708   -2.9792    0.0000 C   0  0  0  0  0  0  0  0  0  0  0  0
   -0.1083   -2.1625    0.0000 C   0  0  0  0  0  0  0  0  0  0  0  0
    3.3667   -2.7875    0.0000 C   0  0  0  0  0  0  0  0  0  0  0  0
    3.7750   -3.5125    0.0000 C   0  0  0  0  0  0  0  0  0  0  0  0
    3.7917   -2.0750    0.0000 C   0  0  0  0  0  0  0  0  0  0  0  0
   -0.9208   -3.3375    0.0000 N   0  0  0  0  0  0  0  0  0  0  0  0
    5.0250   -2.8125    0.0000 C   0  0  0  0  0  0  0  0  0  0  0  0
    4.6167   -2.0875    0.0000 C   0  0  0  0  0  0  0  0  0  0  0  0
    4.6000   -3.5167    0.0000 C   0  0  0  0  0  0  0  0  0  0  0  0
    5.8500   -2.8250    0.0000 F   0  0  0  0  0  0  0  0  0  0  0  0
  2  3  2  0  0  0  0
  3  1  1  0  0  0  0
  4  5  2  0  0  0  0
  5  1  1  0  0  0  0
  6  1  1  0  0  0  0
  7  3  1  0  0  0  0
  8  6  2  0  0  0  0
  9  8  1  0  0  0  0
 10  4  1  0  0  0  0
 11 10  2  0  0  0  0
 12 10  1  0  0  0  0
 13  8  1  0  0  0  0
 14 15  1  0  0  0  0
 15 12  2  0  0  0  0
 16 11  1  0  0  0  0
 17 14  1  0  0  0  0
  2  4  1  0  0  0  0
  7  9  2  0  0  0  0
 16 14  2  0  0  0  0
M  END
>  <Code> (P1120049)
P1120049

>  <Number of H-Donors> (P1120049)
1

>  <Number of H-Acceptors> (P1120049)
2

>  <Number of Rotatable bonds> (P1120049)
1

>  <CLogP> (P1120049)
2.000000000000000e+000

>  <Number of Rings> (P1120049)
3

>  <PSA> (P1120049)
4.330000000000000e+001

$$$$

  -ISIS-  11102212342D

 22 25  0  0  0  0  0  0  0  0999 V2000
    2.7292   -2.9417    0.0000 N   0  0  3  0  0  0  0  0  0  0  0  0
    3.5917   -1.9292    0.0000 N   0  0  0  0  0  0  0  0  0  0  0  0
    2.7917   -2.1292    0.0000 C   0  0  0  0  0  0  0  0  0  0  0  0
    4.0167   -2.6250    0.0000 C   0  0  0  0  0  0  0  0  0  0  0  0
    3.4917   -3.2542    0.0000 C   0  0  0  0  0  0  0  0  0  0  0  0
    1.9917   -3.2917    0.0000 C   0  0  0  0  0  0  0  0  0  0  0  0
    2.1125   -1.6542    0.0000 C   0  0  0  0  0  0  0  0  0  0  0  0
    1.3042   -2.8292    0.0000 C   0  0  0  0  0  0  0  0  0  0  0  0
    1.3667   -2.0167    0.0000 C   0  0  0  0  0  0  0  0  0  0  0  0
    4.8417   -2.6375    0.0000 C   0  0  0  0  0  0  0  0  0  0  0  0
    6.4917   -2.6625    0.0000 C   0  0  0  0  0  0  0  0  0  0  0  0
    5.2625   -1.9292    0.0000 C   0  0  0  0  0  0  0  0  0  0  0  0
    5.2375   -3.3542    0.0000 C   0  0  0  0  0  0  0  0  0  0  0  0
    6.0792   -1.9417    0.0000 C   0  0  0  0  0  0  0  0  0  0  0  0
    6.0667   -3.3667    0.0000 C   0  0  0  0  0  0  0  0  0  0  0  0
    7.3167   -2.6750    0.0000 C   0  0  0  0  0  0  0  0  0  0  0  0
    0.5667   -3.1875    0.0000 N   0  0  0  0  0  0  0  0  0  0  0  0
    7.7167   -3.3917    0.0000 C   0  0  0  0  0  0  0  0  0  0  0  0
    7.7250   -1.9625    0.0000 C   0  0  0  0  0  0  0  0  0  0  0  0
    8.5542   -1.9667    0.0000 C   0  0  0  0  0  0  0  0  0  0  0  0
    8.5417   -3.3917    0.0000 C   0  0  0  0  0  0  0  0  0  0  0  0
    8.9667   -2.6875    0.0000 C   0  0  0  0  0  0  0  0  0  0  0  0
  2  3  2  0  0  0  0
  3  1  1  0  0  0  0
  4  5  2  0  0  0  0
  5  1  1  0  0  0  0
  6  1  1  0  0  0  0
  7  3  1  0  0  0  0
  8  6  2  0  0  0  0
  9  8  1  0  0  0  0
 10  4  1  0  0  0  0
 11 15  2  0  0  0  0
 12 10  1  0  0  0  0
 13 10  2  0  0  0  0
 14 12  2  0  0  0  0
 15 13  1  0  0  0  0
 16 11  1  0  0  0  0
 17  8  1  0  0  0  0
 18 16  2  0  0  0  0
 19 16  1  0  0  0  0
 20 19  2  0  0  0  0
 21 18  1  0  0  0  0
 22 20  1  0  0  0  0
  4  2  1  0  0  0  0
  7  9  2  0  0  0  0
 11 14  1  0  0  0  0
 22 21  2  0  0  0  0
M  END
>  <Code> (P1120029)
P1120029

>  <Number of H-Donors> (P1120029)
1

>  <Number of H-Acceptors> (P1120029)
2

>  <Number of Rotatable bonds> (P1120029)
2

>  <CLogP> (P1120029)
3.300000000000000e+000

>  <Number of Rings> (P1120029)
4

>  <PSA> (P1120029)
4.330000000000000e+001

$$$$

  -ISIS-  11102212342D

 20 22  0  0  0  0  0  0  0  0999 V2000
   13.3750   -0.2000    0.0000 C   0  0  0  0  0  0  0  0  0  0  0  0
   13.3750   -1.0292    0.0000 C   0  0  0  0  0  0  0  0  0  0  0  0
   12.6542   -1.4375    0.0000 O   0  0  0  0  0  0  0  0  0  0  0  0
   12.6542    0.2208    0.0000 C   0  0  0  0  0  0  0  0  0  0  0  0
   11.9417   -1.0250    0.0000 C   0  0  0  0  0  0  0  0  0  0  0  0
   11.9417   -0.2000    0.0000 C   0  0  0  0  0  0  0  0  0  0  0  0
   11.2292   -1.4417    0.0000 C   0  0  0  0  0  0  0  0  0  0  0  0
   14.0875   -1.4375    0.0000 C   0  0  0  0  0  0  0  0  0  0  0  0
   11.2292    0.2125    0.0000 C   0  0  0  0  0  0  0  0  0  0  0  0
   12.6542    1.0458    0.0000 O   0  0  0  0  0  0  0  0  0  0  0  0
   14.0917    0.2083    0.0000 O   0  0  0  0  0  0  0  0  0  0  0  0
   14.0792   -2.2625    0.0000 C   0  0  0  0  0  0  0  0  0  0  0  0
   14.8000   -1.0292    0.0000 C   0  0  0  0  0  0  0  0  0  0  0  0
   10.5167   -1.0292    0.0000 C   0  0  0  0  0  0  0  0  0  0  0  0
   10.5167   -0.2000    0.0000 C   0  0  0  0  0  0  0  0  0  0  0  0
   15.5125   -2.2667    0.0000 C   0  0  0  0  0  0  0  0  0  0  0  0
   15.5125   -1.4375    0.0000 C   0  0  0  0  0  0  0  0  0  0  0  0
   14.7917   -2.6792    0.0000 C   0  0  0  0  0  0  0  0  0  0  0  0
    9.8042   -1.4417    0.0000 Cl  0  0  0  0  0  0  0  0  0  0  0  0
   16.2250   -2.6792    0.0000 F   0  0  0  0  0  0  0  0  0  0  0  0
  2  1  2  0  0  0  0
  3  2  1  0  0  0  0
  4  1  1  0  0  0  0
  5  6  1  0  0  0  0
  6  4  1  0  0  0  0
  7  5  2  0  0  0  0
  8  2  1  0  0  0  0
  9  6  2  0  0  0  0
 10  4  2  0  0  0  0
 11  1  1  0  0  0  0
 12  8  2  0  0  0  0
 13  8  1  0  0  0  0
 14 15  2  0  0  0  0
 15  9  1  0  0  0  0
 16 17  1  0  0  0  0
 17 13  2  0  0  0  0
 18 12  1  0  0  0  0
 19 14  1  0  0  0  0
 20 16  1  0  0  0  0
  3  5  1  0  0  0  0
 16 18  2  0  0  0  0
  7 14  1  0  0  0  0
M  END
>  <Code> (P11186132)
P11186132

>  <Number of H-Donors> (P11186132)
1

>  <Number of H-Acceptors> (P11186132)
3

>  <Number of Rotatable bonds> (P11186132)
1

>  <CLogP> (P11186132)
3.500000000000000e+000

>  <Number of Rings> (P11186132)
3

>  <PSA> (P11186132)
4.649999999999999e+001

$$$$

  -ISIS-  11102212342D

 19 21  0  0  0  0  0  0  0  0999 V2000
    5.2542   -3.9500    0.0000 C   0  0  0  0  0  0  0  0  0  0  0  0
    5.9667   -4.3667    0.0000 C   0  0  0  0  0  0  0  0  0  0  0  0
    5.9625   -5.1917    0.0000 C   0  0  0  0  0  0  0  0  0  0  0  0
    5.2500   -5.6042    0.0000 N   0  0  0  0  0  0  0  0  0  0  0  0
    6.6792   -3.9625    0.0000 C   0  0  0  0  0  0  0  0  0  0  0  0
    4.5417   -4.3625    0.0000 C   0  0  0  0  0  0  0  0  0  0  0  0
    5.2542   -3.1250    0.0000 C   0  0  0  0  0  0  0  0  0  0  0  0
    4.5375   -5.1875    0.0000 C   0  0  0  0  0  0  0  0  0  0  0  0
    7.3917   -4.3792    0.0000 C   0  0  0  0  0  0  0  0  0  0  0  0
    6.6667   -5.6125    0.0000 C   0  0  0  0  0  0  0  0  0  0  0  0
    7.3875   -5.2042    0.0000 C   0  0  0  0  0  0  0  0  0  0  0  0
    4.5417   -2.7042    0.0000 O   0  0  0  0  0  0  0  0  0  0  0  0
    6.6875   -3.1375    0.0000 O   0  0  0  0  0  0  0  0  0  0  0  0
    5.9667   -2.7042    0.0000 O   0  0  0  0  0  0  0  0  0  0  0  0
    8.1000   -5.6292    0.0000 O   0  0  0  0  0  0  0  0  0  0  0  0
    3.8250   -3.9417    0.0000 C   0  0  0  0  0  0  0  0  0  0  0  0
    3.8250   -5.6000    0.0000 C   0  0  0  0  0  0  0  0  0  0  0  0
    3.1125   -4.3625    0.0000 C   0  0  0  0  0  0  0  0  0  0  0  0
    3.1125   -5.1875    0.0000 C   0  0  0  0  0  0  0  0  0  0  0  0
  2  1  2  0  0  0  0
  3  2  1  0  0  0  0
  4  8  1  0  0  0  0
  5  2  1  0  0  0  0
  6  1  1  0  0  0  0
  7  1  1  0  0  0  0
  8  6  2  0  0  0  0
  9  5  2  0  0  0  0
 10  3  1  0  0  0  0
 11  9  1  0  0  0  0
 12  7  2  0  0  0  0
 13  5  1  0  0  0  0
 14  7  1  0  0  0  0
 15 11  1  0  0  0  0
 16  6  1  0  0  0  0
 17  8  1  0  0  0  0
 18 16  2  0  0  0  0
 19 18  1  0  0  0  0
  3  4  2  0  0  0  0
 17 19  2  0  0  0  0
 10 11  2  0  0  0  0
M  END
>  <Code> (P11185902)
P11185902

>  <Number of H-Donors> (P11185902)
3

>  <Number of H-Acceptors> (P11185902)
5

>  <Number of Rotatable bonds> (P11185902)
1

>  <CLogP> (P11185902)
2.500000000000000e+000

>  <Number of Rings> (P11185902)
3

>  <PSA> (P11185902)
9.070000000000000e+001

$$$$

  -ISIS-  11102212342D

 28 31  0  0  0  0  0  0  0  0999 V2000
   -1.4208   -2.4500    0.0000 N   0  0  3  0  0  0  0  0  0  0  0  0
    2.7500   -8.3417    0.0000 N   0  0  3  0  0  0  0  0  0  0  0  0
   -2.6625   -2.9292    0.0000 N   0  0  0  0  0  0  0  0  0  0  0  0
   -2.1458   -3.5625    0.0000 N   0  0  0  0  0  0  0  0  0  0  0  0
    2.1000   -8.8417    0.0000 N   0  0  0  0  0  0  0  0  0  0  0  0
    2.3792   -9.6167    0.0000 N   0  0  0  0  0  0  0  0  0  0  0  0
    2.0500   -7.1000    0.0000 C   0  0  0  0  0  0  0  0  0  0  0  0
   -2.2208   -2.2375    0.0000 C   0  0  0  0  0  0  0  0  0  0  0  0
    3.1917   -9.5917    0.0000 N   0  0  0  0  0  0  0  0  0  0  0  0
   -1.3750   -3.2667    0.0000 C   0  0  0  0  0  0  0  0  0  0  0  0
    2.7625   -7.5167    0.0000 C   0  0  0  0  0  0  0  0  0  0  0  0
    3.4292   -8.8042    0.0000 C   0  0  0  0  0  0  0  0  0  0  0  0
    1.3292   -7.4917    0.0000 C   0  0  0  0  0  0  0  0  0  0  0  0
   -0.8375   -1.8625    0.0000 C   0  0  0  0  0  0  0  0  0  0  0  0
   -2.4333   -1.4375    0.0000 C   0  0  0  0  0  0  0  0  0  0  0  0
    1.3125   -8.3292    0.0000 O   0  0  0  0  0  0  0  0  0  0  0  0
   -1.0500   -1.0750    0.0000 C   0  0  0  0  0  0  0  0  0  0  0  0
   -1.8583   -0.8542    0.0000 C   0  0  0  0  0  0  0  0  0  0  0  0
    0.6250   -7.0750    0.0000 N   0  0  0  0  0  0  0  0  0  0  0  0
    2.0542   -6.2667    0.0000 C   0  0  0  0  0  0  0  0  0  0  0  0
   -0.6750   -3.7167    0.0000 C   0  0  0  0  0  0  0  0  0  0  0  0
    3.4875   -7.1125    0.0000 C   0  0  0  0  0  0  0  0  0  0  0  0
    0.6500   -6.2500    0.0000 C   0  0  0  0  0  0  0  0  0  0  0  0
   -0.7125   -4.5500    0.0000 C   0  0  0  0  0  0  0  0  0  0  0  0
   -0.0458   -5.8125    0.0000 C   0  0  0  0  0  0  0  0  0  0  0  0
    2.7667   -5.8542    0.0000 C   0  0  0  0  0  0  0  0  0  0  0  0
   -0.0208   -4.9875    0.0000 C   0  0  0  0  0  0  0  0  0  0  0  0
    3.5000   -6.2875    0.0000 C   0  0  0  0  0  0  0  0  0  0  0  0
  2 11  1  0  0  0  0
  3  8  2  0  0  0  0
  4 10  2  0  0  0  0
  5  2  1  0  0  0  0
  6  5  2  0  0  0  0
  7 13  1  0  0  0  0
  8  1  1  0  0  0  0
  9 12  2  0  0  0  0
 10  1  1  0  0  0  0
 11  7  1  0  0  0  0
 12  2  1  0  0  0  0
 13 19  1  0  0  0  0
 14  1  1  0  0  0  0
 15  8  1  0  0  0  0
 16 13  2  0  0  0  0
 17 14  2  0  0  0  0
 18 17  1  0  0  0  0
 19 23  1  0  0  0  0
 20  7  2  0  0  0  0
 21 10  1  0  0  0  0
 22 11  2  0  0  0  0
 23 25  1  0  0  0  0
 24 21  1  0  0  0  0
 25 27  1  0  0  0  0
 26 20  1  0  0  0  0
 27 24  1  0  0  0  0
 28 26  2  0  0  0  0
  4  3  1  0  0  0  0
 15 18  2  0  0  0  0
 28 22  1  0  0  0  0
  6  9  1  0  0  0  0
M  END
>  <Code> (P11185139)
P11185139

>  <Number of H-Donors> (P11185139)
1

>  <Number of H-Acceptors> (P11185139)
6

>  <Number of Rotatable bonds> (P11185139)
8

>  <CLogP> (P11185139)
1.700000000000000e+000

>  <Number of Rings> (P11185139)
4

>  <PSA> (P11185139)
1.029000000000000e+002

$$$$

  -ISIS-  11102212342D

 28 31  0  0  0  0  0  0  0  0999 V2000
    6.0667   -1.1042    0.0000 C   0  0  0  0  0  0  0  0  0  0  0  0
    6.8792   -1.2292    0.0000 C   0  0  0  0  0  0  0  0  0  0  0  0
    6.1667   -5.5542    0.0000 N   0  0  0  0  0  0  0  0  0  0  0  0
    5.5417   -1.7542    0.0000 C   0  0  0  0  0  0  0  0  0  0  0  0
    5.8292   -2.5167    0.0000 N   0  0  3  0  0  0  0  0  0  0  0  0
    5.3875   -5.3500    0.0000 C   0  0  0  0  0  0  0  0  0  0  0  0
    7.1792   -2.0125    0.0000 N   0  0  0  0  0  0  0  0  0  0  0  0
    5.9292   -0.2917    0.0000 C   0  0  0  0  0  0  0  0  0  0  0  0
    7.2542   -0.5042    0.0000 S   0  0  0  0  0  0  0  0  0  0  0  0
    6.6792    0.0833    0.0000 C   0  0  0  0  0  0  0  0  0  0  0  0
    6.2167   -6.3667    0.0000 C   0  0  0  0  0  0  0  0  0  0  0  0
    4.9417   -6.0292    0.0000 N   0  0  0  0  0  0  0  0  0  0  0  0
    6.6542   -2.6542    0.0000 C   0  0  0  0  0  0  0  0  0  0  0  0
    5.4542   -6.6625    0.0000 N   0  0  0  0  0  0  0  0  0  0  0  0
    5.0917   -4.5750    0.0000 N   0  0  0  0  0  0  0  0  0  0  0  0
    5.6125   -3.9375    0.0000 C   0  0  0  0  0  0  0  0  0  0  0  0
    5.3167   -3.1667    0.0000 C   0  0  0  0  0  0  0  0  0  0  0  0
    4.7292   -1.6167    0.0000 O   0  0  0  0  0  0  0  0  0  0  0  0
    6.8042    0.9000    0.0000 C   0  0  0  0  0  0  0  0  0  0  0  0
    6.4292   -4.0667    0.0000 O   0  0  0  0  0  0  0  0  0  0  0  0
    6.9042   -6.8042    0.0000 C   0  0  3  0  0  0  0  0  0  0  0  0
    6.1750    1.4333    0.0000 C   0  0  0  0  0  0  0  0  0  0  0  0
    7.5875    1.1958    0.0000 C   0  0  0  0  0  0  0  0  0  0  0  0
    6.8667   -7.6292    0.0000 C   0  0  0  0  0  0  0  0  0  0  0  0
    7.6167   -6.4250    0.0000 C   0  0  0  0  0  0  0  0  0  0  0  0
    7.7167    2.0083    0.0000 C   0  0  0  0  0  0  0  0  0  0  0  0
    6.3125    2.2458    0.0000 C   0  0  0  0  0  0  0  0  0  0  0  0
    7.0917    2.5375    0.0000 C   0  0  0  0  0  0  0  0  0  0  0  0
  2  1  2  0  0  0  0
  3  6  1  0  0  0  0
  4  1  1  0  0  0  0
  5  4  1  0  0  0  0
  6 15  1  0  0  0  0
  7  2  1  0  0  0  0
  8  1  1  0  0  0  0
  9  2  1  0  0  0  0
 10  8  2  0  0  0  0
 11  3  2  0  0  0  0
 12  6  2  0  0  0  0
 13  5  1  0  0  0  0
 14 12  1  0  0  0  0
 15 16  1  0  0  0  0
 16 17  1  0  0  0  0
 17  5  1  0  0  0  0
 18  4  2  0  0  0  0
 19 10  1  0  0  0  0
 20 16  2  0  0  0  0
 21 11  1  0  0  0  0
 22 19  2  0  0  0  0
 23 19  1  0  0  0  0
 24 21  1  0  0  0  0
 25 21  1  0  0  0  0
 26 23  2  0  0  0  0
 27 22  1  0  0  0  0
 28 26  1  0  0  0  0
  9 10  1  0  0  0  0
 13  7  2  0  0  0  0
 28 27  2  0  0  0  0
 14 11  1  0  0  0  0
M  END
>  <Code> (P11185056)
P11185056

>  <Number of H-Donors> (P11185056)
2

>  <Number of H-Acceptors> (P11185056)
5

>  <Number of Rotatable bonds> (P11185056)
5

>  <CLogP> (P11185056)
2.900000000000000e+000

>  <Number of Rings> (P11185056)
4

>  <PSA> (P11185056)
1.316000000000000e+002

$$$$

  -ISIS-  11102212342D

 25 28  0  0  0  0  0  0  0  0999 V2000
   10.6292   -4.1167    0.0000 C   0  0  0  0  0  0  0  0  0  0  0  0
   10.9667   -4.8667    0.0000 C   0  0  0  0  0  0  0  0  0  0  0  0
    9.8125   -4.0292    0.0000 C   0  0  0  0  0  0  0  0  0  0  0  0
    9.3250   -4.6917    0.0000 N   0  0  3  0  0  0  0  0  0  0  0  0
   10.4750   -5.5417    0.0000 N   0  0  0  0  0  0  0  0  0  0  0  0
   11.2417   -3.5667    0.0000 C   0  0  0  0  0  0  0  0  0  0  0  0
   11.7750   -4.7917    0.0000 S   0  0  0  0  0  0  0  0  0  0  0  0
   11.9542   -3.9917    0.0000 C   0  0  0  0  0  0  0  0  0  0  0  0
    6.7167   -5.8417    0.0000 C   0  0  0  0  0  0  0  0  0  0  0  0
    5.8917   -5.8417    0.0000 N   0  0  0  0  0  0  0  0  0  0  0  0
    9.6542   -5.4417    0.0000 C   0  0  0  0  0  0  0  0  0  0  0  0
    7.2042   -5.1792    0.0000 N   0  0  0  0  0  0  0  0  0  0  0  0
    6.9667   -6.6292    0.0000 N   0  0  0  0  0  0  0  0  0  0  0  0
    8.0167   -5.2667    0.0000 C   0  0  0  0  0  0  0  0  0  0  0  0
    8.5042   -4.6042    0.0000 C   0  0  0  0  0  0  0  0  0  0  0  0
    6.3042   -7.1167    0.0000 N   0  0  0  0  0  0  0  0  0  0  0  0
    5.6417   -6.6292    0.0000 C   0  0  0  0  0  0  0  0  0  0  0  0
    9.4792   -3.2750    0.0000 O   0  0  0  0  0  0  0  0  0  0  0  0
   12.7125   -3.6625    0.0000 C   0  0  0  0  0  0  0  0  0  0  0  0
    8.3542   -6.0292    0.0000 O   0  0  0  0  0  0  0  0  0  0  0  0
   12.8125   -2.8375    0.0000 C   0  0  0  0  0  0  0  0  0  0  0  0
   13.3750   -4.1417    0.0000 C   0  0  0  0  0  0  0  0  0  0  0  0
   14.1375   -3.8250    0.0000 C   0  0  0  0  0  0  0  0  0  0  0  0
   13.5667   -2.5042    0.0000 C   0  0  0  0  0  0  0  0  0  0  0  0
   14.2375   -3.0042    0.0000 C   0  0  0  0  0  0  0  0  0  0  0  0
  2  1  2  0  0  0  0
  3  1  1  0  0  0  0
  4  3  1  0  0  0  0
  5  2  1  0  0  0  0
  6  1  1  0  0  0  0
  7  2  1  0  0  0  0
  8  6  2  0  0  0  0
  9 12  1  0  0  0  0
 10  9  1  0  0  0  0
 11  4  1  0  0  0  0
 12 14  1  0  0  0  0
 13  9  2  0  0  0  0
 14 15  1  0  0  0  0
 15  4  1  0  0  0  0
 16 13  1  0  0  0  0
 17 10  2  0  0  0  0
 18  3  2  0  0  0  0
 19  8  1  0  0  0  0
 20 14  2  0  0  0  0
 21 19  2  0  0  0  0
 22 19  1  0  0  0  0
 23 22  2  0  0  0  0
 24 21  1  0  0  0  0
 25 23  1  0  0  0  0
  7  8  1  0  0  0  0
 11  5  2  0  0  0  0
 25 24  2  0  0  0  0
 16 17  1  0  0  0  0
M  END
>  <Code> (P11185055)
P11185055

>  <Number of H-Donors> (P11185055)
2

>  <Number of H-Acceptors> (P11185055)
5

>  <Number of Rotatable bonds> (P11185055)
4

>  <CLogP> (P11185055)
1.500000000000000e+000

>  <Number of Rings> (P11185055)
4

>  <PSA> (P11185055)
1.316000000000000e+002

$$$$

  -ISIS-  11102212342D

 27 30  0  0  0  0  0  0  0  0999 V2000
    6.2250   -6.5125    0.0000 C   0  0  0  0  0  0  0  0  0  0  0  0
    6.3125   -5.6792    0.0000 N   0  0  0  0  0  0  0  0  0  0  0  0
    6.9875   -6.8417    0.0000 N   0  0  3  0  0  0  0  0  0  0  0  0
    2.6375   -6.9250    0.0000 C   0  0  0  0  0  0  0  0  0  0  0  0
    1.9250   -5.6875    0.0000 N   0  0  3  0  0  0  0  0  0  0  0  0
    2.5917   -5.2042    0.0000 N   0  0  0  0  0  0  0  0  0  0  0  0
    2.3375   -4.4167    0.0000 N   0  0  0  0  0  0  0  0  0  0  0  0
    1.9250   -6.5125    0.0000 C   0  0  0  0  0  0  0  0  0  0  0  0
    1.5042   -4.4125    0.0000 N   0  0  0  0  0  0  0  0  0  0  0  0
    7.5375   -6.2250    0.0000 C   0  0  0  0  0  0  0  0  0  0  0  0
    7.1250   -5.5042    0.0000 C   0  0  0  0  0  0  0  0  0  0  0  0
    1.2500   -5.2042    0.0000 C   0  0  0  0  0  0  0  0  0  0  0  0
    3.3625   -6.5042    0.0000 C   0  0  0  0  0  0  0  0  0  0  0  0
    1.2042   -6.9375    0.0000 C   0  0  0  0  0  0  0  0  0  0  0  0
    2.6417   -7.7500    0.0000 C   0  0  0  0  0  0  0  0  0  0  0  0
    5.5042   -6.9250    0.0000 C   0  0  0  0  0  0  0  0  0  0  0  0
    3.3500   -5.6875    0.0000 O   0  0  0  0  0  0  0  0  0  0  0  0
    4.0750   -6.9250    0.0000 N   0  0  0  0  0  0  0  0  0  0  0  0
    1.9250   -8.1667    0.0000 C   0  0  0  0  0  0  0  0  0  0  0  0
    4.7875   -6.5125    0.0000 C   0  0  0  0  0  0  0  0  0  0  0  0
    1.2042   -7.7625    0.0000 C   0  0  0  0  0  0  0  0  0  0  0  0
    7.1625   -7.6500    0.0000 C   0  0  0  0  0  0  0  0  0  0  0  0
    1.9250   -8.9917    0.0000 Br  0  0  0  0  0  0  0  0  0  0  0  0
    8.3625   -6.2250    0.0000 C   0  0  0  0  0  0  0  0  0  0  0  0
    7.5292   -4.8000    0.0000 C   0  0  0  0  0  0  0  0  0  0  0  0
    8.7667   -5.5125    0.0000 C   0  0  0  0  0  0  0  0  0  0  0  0
    8.3542   -4.7917    0.0000 C   0  0  0  0  0  0  0  0  0  0  0  0
  2  1  2  0  0  0  0
  3  1  1  0  0  0  0
  4 13  1  0  0  0  0
  5  8  1  0  0  0  0
  6  5  1  0  0  0  0
  7  6  2  0  0  0  0
  8  4  1  0  0  0  0
  9 12  2  0  0  0  0
 10  3  1  0  0  0  0
 11  2  1  0  0  0  0
 12  5  1  0  0  0  0
 13 18  1  0  0  0  0
 14  8  2  0  0  0  0
 15  4  2  0  0  0  0
 16  1  1  0  0  0  0
 17 13  2  0  0  0  0
 18 20  1  0  0  0  0
 19 15  1  0  0  0  0
 20 16  1  0  0  0  0
 21 19  2  0  0  0  0
 22  3  1  0  0  0  0
 23 19  1  0  0  0  0
 24 10  1  0  0  0  0
 25 11  1  0  0  0  0
 26 24  2  0  0  0  0
 27 25  2  0  0  0  0
 11 10  2  0  0  0  0
 26 27  1  0  0  0  0
 21 14  1  0  0  0  0
  7  9  1  0  0  0  0
M  END
>  <Code> (P11183905)
P11183905

>  <Number of H-Donors> (P11183905)
1

>  <Number of H-Acceptors> (P11183905)
5

>  <Number of Rotatable bonds> (P11183905)
5

>  <CLogP> (P11183905)
2.400000000000000e+000

>  <Number of Rings> (P11183905)
4

>  <PSA> (P11183905)
9.050000000000000e+001

$$$$

  -ISIS-  11102212342D

 28 31  0  0  0  0  0  0  0  0999 V2000
   -1.2208   -3.5167    0.0000 C   0  0  0  0  0  0  0  0  0  0  0  0
   -0.5000   -3.1042    0.0000 N   0  0  3  0  0  0  0  0  0  0  0  0
   -1.9250   -3.0917    0.0000 C   0  0  0  0  0  0  0  0  0  0  0  0
    5.3000   -2.2917    0.0000 N   0  0  0  0  0  0  0  0  0  0  0  0
   -1.2125   -1.8625    0.0000 N   0  0  0  0  0  0  0  0  0  0  0  0
    5.2125   -3.1167    0.0000 C   0  0  0  0  0  0  0  0  0  0  0  0
    5.9625   -3.4417    0.0000 N   0  0  0  0  0  0  0  0  0  0  0  0
   -0.4958   -2.2792    0.0000 C   0  0  0  0  0  0  0  0  0  0  0  0
    6.1042   -2.1167    0.0000 C   0  0  0  0  0  0  0  0  0  0  0  0
   -1.9250   -2.2667    0.0000 C   0  0  0  0  0  0  0  0  0  0  0  0
    6.5167   -2.8292    0.0000 C   0  0  0  0  0  0  0  0  0  0  0  0
   -1.2250   -4.3417    0.0000 O   0  0  0  0  0  0  0  0  0  0  0  0
    2.3542   -3.1167    0.0000 C   0  0  0  0  0  0  0  0  0  0  0  0
    4.4917   -3.5292    0.0000 C   0  0  0  0  0  0  0  0  0  0  0  0
    2.3542   -2.2917    0.0000 O   0  0  0  0  0  0  0  0  0  0  0  0
    3.0667   -3.5292    0.0000 N   0  0  0  0  0  0  0  0  0  0  0  0
    3.7792   -3.1167    0.0000 C   0  0  0  0  0  0  0  0  0  0  0  0
    0.2167   -3.5167    0.0000 C   0  0  0  0  0  0  0  0  0  0  0  0
   -2.6458   -3.5042    0.0000 C   0  0  0  0  0  0  0  0  0  0  0  0
    0.9292   -3.1042    0.0000 C   0  0  0  0  0  0  0  0  0  0  0  0
    1.6375   -3.5167    0.0000 C   0  0  0  0  0  0  0  0  0  0  0  0
    6.5167   -1.4042    0.0000 C   0  0  0  0  0  0  0  0  0  0  0  0
    7.3417   -2.8292    0.0000 C   0  0  0  0  0  0  0  0  0  0  0  0
   -2.6458   -1.8542    0.0000 C   0  0  0  0  0  0  0  0  0  0  0  0
   -3.3583   -3.0917    0.0000 C   0  0  0  0  0  0  0  0  0  0  0  0
    7.7500   -2.1167    0.0000 C   0  0  0  0  0  0  0  0  0  0  0  0
    7.3375   -1.4042    0.0000 C   0  0  0  0  0  0  0  0  0  0  0  0
   -3.3458   -2.2667    0.0000 C   0  0  0  0  0  0  0  0  0  0  0  0
  2  1  1  0  0  0  0
  3  1  1  0  0  0  0
  4  6  2  0  0  0  0
  5 10  1  0  0  0  0
  6 14  1  0  0  0  0
  7  6  1  0  0  0  0
  8  2  1  0  0  0  0
  9  4  1  0  0  0  0
 10  3  1  0  0  0  0
 11  7  1  0  0  0  0
 12  1  2  0  0  0  0
 13 21  1  0  0  0  0
 14 17  1  0  0  0  0
 15 13  2  0  0  0  0
 16 13  1  0  0  0  0
 17 16  1  0  0  0  0
 18  2  1  0  0  0  0
 19  3  2  0  0  0  0
 20 18  1  0  0  0  0
 21 20  1  0  0  0  0
 22  9  1  0  0  0  0
 23 11  1  0  0  0  0
 24 10  2  0  0  0  0
 25 19  1  0  0  0  0
 26 23  2  0  0  0  0
 27 22  2  0  0  0  0
 28 25  2  0  0  0  0
  5  8  2  0  0  0  0
 24 28  1  0  0  0  0
  9 11  2  0  0  0  0
 26 27  1  0  0  0  0
M  END
>  <Code> (P11183871)
P11183871

>  <Number of H-Donors> (P11183871)
2

>  <Number of H-Acceptors> (P11183871)
4

>  <Number of Rotatable bonds> (P11183871)
7

>  <CLogP> (P11183871)
2.100000000000000e+000

>  <Number of Rings> (P11183871)
4

>  <PSA> (P11183871)
9.050000000000000e+001

$$$$

  -ISIS-  11102212342D

 27 30  0  0  0  0  0  0  0  0999 V2000
    7.0542   -1.7292    0.0000 N   0  0  3  0  0  0  0  0  0  0  0  0
    7.1875   -3.0542    0.0000 N   0  0  0  0  0  0  0  0  0  0  0  0
    6.3792   -2.8792    0.0000 N   0  0  0  0  0  0  0  0  0  0  0  0
    7.6042   -2.3417    0.0000 C   0  0  0  0  0  0  0  0  0  0  0  0
    6.3000   -2.0667    0.0000 C   0  0  0  0  0  0  0  0  0  0  0  0
    2.7167   -0.8375    0.0000 N   0  0  0  0  0  0  0  0  0  0  0  0
    2.0042   -0.4250    0.0000 C   0  0  0  0  0  0  0  0  0  0  0  0
    7.3042   -0.9417    0.0000 C   0  0  0  0  0  0  0  0  0  0  0  0
    1.3000   -0.8375    0.0000 C   0  0  0  0  0  0  0  0  0  0  0  0
    2.0042    0.3958    0.0000 C   0  0  0  0  0  0  0  0  0  0  0  0
    4.8667    0.4125    0.0000 C   0  0  0  0  0  0  0  0  0  0  0  0
    4.1542    0.8208    0.0000 N   0  0  0  0  0  0  0  0  0  0  0  0
    8.4125   -2.1750    0.0000 C   0  0  0  0  0  0  0  0  0  0  0  0
    3.4417    0.4083    0.0000 C   0  0  0  0  0  0  0  0  0  0  0  0
    2.7167    0.8208    0.0000 C   0  0  0  0  0  0  0  0  0  0  0  0
    8.1125   -0.7667    0.0000 C   0  0  0  0  0  0  0  0  0  0  0  0
    8.6625   -1.3875    0.0000 C   0  0  0  0  0  0  0  0  0  0  0  0
    5.5875    0.8250    0.0000 O   0  0  0  0  0  0  0  0  0  0  0  0
    3.4417   -0.4250    0.0000 C   0  0  0  0  0  0  0  0  0  0  0  0
    1.3125    0.8083    0.0000 C   0  0  0  0  0  0  0  0  0  0  0  0
    0.5917   -0.4125    0.0000 C   0  0  0  0  0  0  0  0  0  0  0  0
    0.5917    0.4083    0.0000 C   0  0  0  0  0  0  0  0  0  0  0  0
    5.5792   -1.6500    0.0000 C   0  0  0  0  0  0  0  0  0  0  0  0
   -0.1250   -0.8250    0.0000 O   0  0  0  0  0  0  0  0  0  0  0  0
    4.8667   -0.4125    0.0000 C   0  0  0  0  0  0  0  0  0  0  0  0
    5.5792   -0.8250    0.0000 C   0  0  0  0  0  0  0  0  0  0  0  0
   -0.1250   -1.6500    0.0000 C   0  0  0  0  0  0  0  0  0  0  0  0
  2  4  2  0  0  0  0
  3  5  2  0  0  0  0
  4  1  1  0  0  0  0
  5  1  1  0  0  0  0
  6 19  2  0  0  0  0
  7  6  1  0  0  0  0
  8  1  1  0  0  0  0
  9  7  1  0  0  0  0
 10 15  1  0  0  0  0
 11 25  1  0  0  0  0
 12 11  1  0  0  0  0
 13  4  1  0  0  0  0
 14 12  1  0  0  0  0
 15 14  2  0  0  0  0
 16  8  2  0  0  0  0
 17 16  1  0  0  0  0
 18 11  2  0  0  0  0
 19 14  1  0  0  0  0
 20 10  1  0  0  0  0
 21  9  2  0  0  0  0
 22 20  2  0  0  0  0
 23  5  1  0  0  0  0
 24 21  1  0  0  0  0
 25 26  1  0  0  0  0
 26 23  1  0  0  0  0
 27 24  1  0  0  0  0
  3  2  1  0  0  0  0
 13 17  2  0  0  0  0
 10  7  2  0  0  0  0
 21 22  1  0  0  0  0
M  END
>  <Code> (P11183128)
P11183128

>  <Number of H-Donors> (P11183128)
1

>  <Number of H-Acceptors> (P11183128)
5

>  <Number of Rotatable bonds> (P11183128)
6

>  <CLogP> (P11183128)
2.200000000000000e+000

>  <Number of Rings> (P11183128)
4

>  <PSA> (P11183128)
8.140000000000001e+001

$$$$

  -ISIS-  11102212342D

 28 31  0  0  0  0  0  0  0  0999 V2000
    4.3417   -8.1167    0.0000 C   0  0  0  0  0  0  0  0  0  0  0  0
    5.0917   -7.7917    0.0000 N   0  0  3  0  0  0  0  0  0  0  0  0
    4.4292   -8.9292    0.0000 N   0  0  0  0  0  0  0  0  0  0  0  0
    0.7500   -7.7792    0.0000 C   0  0  0  0  0  0  0  0  0  0  0  0
    0.0542   -8.2167    0.0000 C   0  0  0  0  0  0  0  0  0  0  0  0
    1.4750   -8.1792    0.0000 C   0  0  0  0  0  0  0  0  0  0  0  0
    5.2292   -9.1167    0.0000 N   0  0  0  0  0  0  0  0  0  0  0  0
    2.1875   -7.7542    0.0000 C   0  0  0  0  0  0  0  0  0  0  0  0
    5.6542   -8.3917    0.0000 C   0  0  0  0  0  0  0  0  0  0  0  0
   -0.2583   -6.9167    0.0000 N   0  0  0  0  0  0  0  0  0  0  0  0
    3.6125   -7.7167    0.0000 C   0  0  1  0  0  0  0  0  0  0  0  0
   -0.5750   -7.6792    0.0000 O   0  0  0  0  0  0  0  0  0  0  0  0
    0.0625   -9.0417    0.0000 N   0  0  0  0  0  0  0  0  0  0  0  0
    2.9125   -8.1417    0.0000 N   0  0  0  0  0  0  0  0  0  0  0  0
    0.5542   -6.9792    0.0000 C   0  0  0  0  0  0  0  0  0  0  0  0
    5.3667   -6.9917    0.0000 C   0  0  0  0  0  0  0  0  0  0  0  0
    1.5042   -9.0042    0.0000 C   0  0  0  0  0  0  0  0  0  0  0  0
    0.7917   -9.4417    0.0000 C   0  0  0  0  0  0  0  0  0  0  0  0
    6.4667   -8.2292    0.0000 C   0  0  0  0  0  0  0  0  0  0  0  0
    2.1667   -6.9167    0.0000 O   0  0  0  0  0  0  0  0  0  0  0  0
    3.6000   -6.8917    0.0000 C   0  0  0  0  0  0  0  0  0  0  0  0
    6.1667   -6.8292    0.0000 C   0  0  0  0  0  0  0  0  0  0  0  0
    6.7167   -7.4417    0.0000 C   0  0  0  0  0  0  0  0  0  0  0  0
    1.0917   -6.3542    0.0000 C   0  0  0  0  0  0  0  0  0  0  0  0
    4.3042   -6.4667    0.0000 C   0  0  3  0  0  0  0  0  0  0  0  0
    0.8125  -10.2667    0.0000 C   0  0  0  0  0  0  0  0  0  0  0  0
    5.0167   -6.8667    0.0000 C   0  0  0  0  0  0  0  0  0  0  0  0
    4.2875   -5.6417    0.0000 C   0  0  0  0  0  0  0  0  0  0  0  0
  2  1  1  0  0  0  0
  3  1  2  0  0  0  0
  4  6  1  0  0  0  0
  5  4  2  0  0  0  0
  6  8  1  0  0  0  0
  7  3  1  0  0  0  0
  8 14  1  0  0  0  0
  9  2  1  0  0  0  0
 10 15  2  0  0  0  0
 11  1  1  0  0  0  0
 12  5  1  0  0  0  0
 13 18  2  0  0  0  0
 14 11  1  0  0  0  0
 15  4  1  0  0  0  0
 16  2  1  0  0  0  0
 17  6  2  0  0  0  0
 18 17  1  0  0  0  0
 19  9  1  0  0  0  0
 20  8  2  0  0  0  0
 11 21  1  1  0  0  0
 22 16  2  0  0  0  0
 23 22  1  0  0  0  0
 24 15  1  0  0  0  0
 25 21  1  0  0  0  0
 26 18  1  0  0  0  0
 27 25  1  0  0  0  0
 28 25  1  0  0  0  0
  9  7  2  0  0  0  0
 19 23  2  0  0  0  0
 13  5  1  0  0  0  0
 12 10  1  0  0  0  0
M  END
>  <Code> (P11182946)
P11182946

>  <Number of H-Donors> (P11182946)
1

>  <Number of H-Acceptors> (P11182946)
5

>  <Number of Rotatable bonds> (P11182946)
5

>  <CLogP> (P11182946)
2.300000000000000e+000

>  <Number of Rings> (P11182946)
4

>  <PSA> (P11182946)
9.820000000000000e+001

$$$$

  -ISIS-  11102212342D

 27 30  0  0  0  0  0  0  0  0999 V2000
    5.1667    3.9333    0.0000 N   0  0  3  0  0  0  0  0  0  0  0  0
    1.6625    0.1333    0.0000 N   0  0  3  0  0  0  0  0  0  0  0  0
    3.0875    0.1333    0.0000 C   0  0  0  0  0  0  0  0  0  0  0  0
    2.3750   -0.2792    0.0000 C   0  0  0  0  0  0  0  0  0  0  0  0
    4.0875    4.7125    0.0000 N   0  0  0  0  0  0  0  0  0  0  0  0
    3.8167    3.9375    0.0000 N   0  0  0  0  0  0  0  0  0  0  0  0
    1.5792    0.9500    0.0000 N   0  0  0  0  0  0  0  0  0  0  0  0
    0.7667    1.1208    0.0000 N   0  0  0  0  0  0  0  0  0  0  0  0
    4.9042    4.7125    0.0000 C   0  0  0  0  0  0  0  0  0  0  0  0
    4.4917    3.4458    0.0000 C   0  0  0  0  0  0  0  0  0  0  0  0
    0.3542    0.4083    0.0000 N   0  0  0  0  0  0  0  0  0  0  0  0
    0.9125   -0.2042    0.0000 C   0  0  0  0  0  0  0  0  0  0  0  0
    3.0792    0.9583    0.0000 C   0  0  0  0  0  0  0  0  0  0  0  0
    2.3750   -1.1042    0.0000 C   0  0  0  0  0  0  0  0  0  0  0  0
    3.8042   -0.2792    0.0000 C   0  0  0  0  0  0  0  0  0  0  0  0
    5.9667    3.7708    0.0000 C   0  0  0  0  0  0  0  0  0  0  0  0
    4.4917    2.6208    0.0000 C   0  0  0  0  0  0  0  0  0  0  0  0
    5.4625    5.3167    0.0000 C   0  0  0  0  0  0  0  0  0  0  0  0
    3.0875   -1.5167    0.0000 C   0  0  0  0  0  0  0  0  0  0  0  0
    2.3667    1.3708    0.0000 O   0  0  0  0  0  0  0  0  0  0  0  0
    3.8042   -1.1042    0.0000 C   0  0  0  0  0  0  0  0  0  0  0  0
    6.5250    4.3667    0.0000 C   0  0  0  0  0  0  0  0  0  0  0  0
    6.2625    5.1542    0.0000 C   0  0  0  0  0  0  0  0  0  0  0  0
    3.7875    1.3750    0.0000 N   0  0  0  0  0  0  0  0  0  0  0  0
    3.7792    2.2083    0.0000 C   0  0  0  0  0  0  0  0  0  0  0  0
    1.6542   -1.5167    0.0000 C   0  0  0  0  0  0  0  0  0  0  0  0
    3.0875   -2.3417    0.0000 C   0  0  0  0  0  0  0  0  0  0  0  0
  2  4  1  0  0  0  0
  3 13  1  0  0  0  0
  4  3  1  0  0  0  0
  5  9  2  0  0  0  0
  6 10  2  0  0  0  0
  7  2  1  0  0  0  0
  8  7  2  0  0  0  0
  9  1  1  0  0  0  0
 10  1  1  0  0  0  0
 11 12  2  0  0  0  0
 12  2  1  0  0  0  0
 13 24  1  0  0  0  0
 14  4  2  0  0  0  0
 15  3  2  0  0  0  0
 16  1  1  0  0  0  0
 17 10  1  0  0  0  0
 18  9  1  0  0  0  0
 19 21  2  0  0  0  0
 20 13  2  0  0  0  0
 21 15  1  0  0  0  0
 22 16  2  0  0  0  0
 23 22  1  0  0  0  0
 24 25  1  0  0  0  0
 25 17  1  0  0  0  0
 26 14  1  0  0  0  0
 27 19  1  0  0  0  0
  5  6  1  0  0  0  0
 23 18  2  0  0  0  0
 19 14  1  0  0  0  0
 11  8  1  0  0  0  0
M  END
>  <Code> (P11182483)
P11182483

>  <Number of H-Donors> (P11182483)
1

>  <Number of H-Acceptors> (P11182483)
6

>  <Number of Rotatable bonds> (P11182483)
5

>  <CLogP> (P11182483)
1.400000000000000e+000

>  <Number of Rings> (P11182483)
4

>  <PSA> (P11182483)
1.029000000000000e+002

$$$$

  -ISIS-  11102212342D

 24 26  0  0  0  0  0  0  0  0999 V2000
    5.2542   -5.0917    0.0000 C   0  0  0  0  0  0  0  0  0  0  0  0
    4.4667   -5.3417    0.0000 S   0  0  3  0  0  0  0  0  0  0  0  0
    5.5042   -4.3042    0.0000 C   0  0  0  0  0  0  0  0  0  0  0  0
    6.5917   -5.0917    0.0000 C   0  0  0  0  0  0  0  0  0  0  0  0
    5.9167   -5.5667    0.0000 O   0  0  0  0  0  0  0  0  0  0  0  0
    6.3292   -4.3042    0.0000 N   0  0  0  0  0  0  0  0  0  0  0  0
    7.3667   -5.3417    0.0000 C   0  0  0  0  0  0  0  0  0  0  0  0
    5.0167   -3.6292    0.0000 C   0  0  0  0  0  0  0  0  0  0  0  0
    3.8542   -4.7917    0.0000 C   0  0  0  0  0  0  0  0  0  0  0  0
    4.4292   -3.0500    0.0000 N   0  0  0  0  0  0  0  0  0  0  0  0
    3.7542   -5.7542    0.0000 O   0  0  0  0  0  0  0  0  0  0  0  0
    4.8792   -6.0542    0.0000 O   0  0  0  0  0  0  0  0  0  0  0  0
    7.5417   -6.1542    0.0000 C   0  0  0  0  0  0  0  0  0  0  0  0
    4.0292   -3.9792    0.0000 C   0  0  0  0  0  0  0  0  0  0  0  0
    3.0750   -5.0542    0.0000 C   0  0  0  0  0  0  0  0  0  0  0  0
    2.6292   -3.6917    0.0000 C   0  0  0  0  0  0  0  0  0  0  0  0
    6.9292   -6.7042    0.0000 F   0  0  0  0  0  0  0  0  0  0  0  0
    3.4125   -3.4375    0.0000 C   0  0  0  0  0  0  0  0  0  0  0  0
    2.4625   -4.5000    0.0000 C   0  0  0  0  0  0  0  0  0  0  0  0
    2.0167   -3.1500    0.0000 Cl  0  0  0  0  0  0  0  0  0  0  0  0
    7.9792   -4.7917    0.0000 C   0  0  0  0  0  0  0  0  0  0  0  0
    8.3250   -6.4042    0.0000 C   0  0  0  0  0  0  0  0  0  0  0  0
    8.7667   -5.0417    0.0000 C   0  0  0  0  0  0  0  0  0  0  0  0
    8.9375   -5.8542    0.0000 C   0  0  0  0  0  0  0  0  0  0  0  0
  2  1  1  0  0  0  0
  3  1  2  0  0  0  0
  4  5  1  0  0  0  0
  5  1  1  0  0  0  0
  6  3  1  0  0  0  0
  7  4  1  0  0  0  0
  8  3  1  0  0  0  0
  9  2  1  0  0  0  0
 10  8  3  0  0  0  0
 11  2  2  0  0  0  0
 12  2  2  0  0  0  0
 13  7  2  0  0  0  0
 14  9  2  0  0  0  0
 15  9  1  0  0  0  0
 16 19  1  0  0  0  0
 17 13  1  0  0  0  0
 18 14  1  0  0  0  0
 19 15  2  0  0  0  0
 20 16  1  0  0  0  0
 21  7  1  0  0  0  0
 22 13  1  0  0  0  0
 23 21  2  0  0  0  0
 24 23  1  0  0  0  0
  4  6  2  0  0  0  0
 18 16  2  0  0  0  0
 22 24  2  0  0  0  0
M  END
>  <Code> (P11181911)
P11181911

>  <Number of H-Donors> (P11181911)
0

>  <Number of H-Acceptors> (P11181911)
4

>  <Number of Rotatable bonds> (P11181911)
3

>  <CLogP> (P11181911)
4.100000000000000e+000

>  <Number of Rings> (P11181911)
3

>  <PSA> (P11181911)
9.229999999999998e+001

$$$$

  -ISIS-  11102212342D

 24 26  0  0  0  0  0  0  0  0999 V2000
    4.0500   -4.2250    0.0000 C   0  0  0  0  0  0  0  0  0  0  0  0
    3.2667   -4.4792    0.0000 S   0  0  3  0  0  0  0  0  0  0  0  0
    4.3042   -3.4375    0.0000 C   0  0  0  0  0  0  0  0  0  0  0  0
    5.3875   -4.2250    0.0000 C   0  0  0  0  0  0  0  0  0  0  0  0
    4.7167   -4.7042    0.0000 O   0  0  0  0  0  0  0  0  0  0  0  0
    5.1292   -3.4375    0.0000 N   0  0  0  0  0  0  0  0  0  0  0  0
    6.1667   -4.4792    0.0000 C   0  0  0  0  0  0  0  0  0  0  0  0
    3.8167   -2.7667    0.0000 C   0  0  0  0  0  0  0  0  0  0  0  0
    2.6500   -3.9292    0.0000 C   0  0  0  0  0  0  0  0  0  0  0  0
    3.2292   -2.1792    0.0000 N   0  0  0  0  0  0  0  0  0  0  0  0
    2.5500   -4.8875    0.0000 O   0  0  0  0  0  0  0  0  0  0  0  0
    3.6750   -5.1917    0.0000 O   0  0  0  0  0  0  0  0  0  0  0  0
    6.3417   -5.2875    0.0000 C   0  0  0  0  0  0  0  0  0  0  0  0
    2.8250   -3.1167    0.0000 C   0  0  0  0  0  0  0  0  0  0  0  0
    1.8667   -4.1875    0.0000 C   0  0  0  0  0  0  0  0  0  0  0  0
    5.7250   -5.8375    0.0000 F   0  0  0  0  0  0  0  0  0  0  0  0
    2.2042   -2.5667    0.0000 C   0  0  0  0  0  0  0  0  0  0  0  0
    1.2542   -3.6375    0.0000 C   0  0  0  0  0  0  0  0  0  0  0  0
    1.4250   -2.8292    0.0000 C   0  0  0  0  0  0  0  0  0  0  0  0
    6.7792   -3.9292    0.0000 C   0  0  0  0  0  0  0  0  0  0  0  0
    7.1250   -5.5417    0.0000 C   0  0  0  0  0  0  0  0  0  0  0  0
    0.8125   -2.2792    0.0000 C   0  0  0  0  0  0  0  0  0  0  0  0
    7.5667   -4.1792    0.0000 C   0  0  0  0  0  0  0  0  0  0  0  0
    7.7375   -4.9917    0.0000 C   0  0  0  0  0  0  0  0  0  0  0  0
  2  1  1  0  0  0  0
  3  1  2  0  0  0  0
  4  5  1  0  0  0  0
  5  1  1  0  0  0  0
  6  3  1  0  0  0  0
  7  4  1  0  0  0  0
  8  3  1  0  0  0  0
  9  2  1  0  0  0  0
 10  8  3  0  0  0  0
 11  2  2  0  0  0  0
 12  2  2  0  0  0  0
 13  7  2  0  0  0  0
 14  9  2  0  0  0  0
 15  9  1  0  0  0  0
 16 13  1  0  0  0  0
 17 14  1  0  0  0  0
 18 15  2  0  0  0  0
 19 18  1  0  0  0  0
 20  7  1  0  0  0  0
 21 13  1  0  0  0  0
 22 19  1  0  0  0  0
 23 20  2  0  0  0  0
 24 23  1  0  0  0  0
  4  6  2  0  0  0  0
 17 19  2  0  0  0  0
 21 24  2  0  0  0  0
M  END
>  <Code> (P11181910)
P11181910

>  <Number of H-Donors> (P11181910)
0

>  <Number of H-Acceptors> (P11181910)
4

>  <Number of Rotatable bonds> (P11181910)
3

>  <CLogP> (P11181910)
3.900000000000000e+000

>  <Number of Rings> (P11181910)
3

>  <PSA> (P11181910)
9.229999999999998e+001

$$$$

  -ISIS-  11102212342D

 22 24  0  0  0  0  0  0  0  0999 V2000
    5.3000   -7.0417    0.0000 C   0  0  0  0  0  0  0  0  0  0  0  0
    4.2250   -6.2542    0.0000 C   0  0  0  0  0  0  0  0  0  0  0  0
    5.0500   -6.2542    0.0000 N   0  0  0  0  0  0  0  0  0  0  0  0
    3.9625   -7.0417    0.0000 C   0  0  0  0  0  0  0  0  0  0  0  0
    4.6375   -7.5250    0.0000 O   0  0  0  0  0  0  0  0  0  0  0  0
    6.0917   -7.3000    0.0000 C   0  0  0  0  0  0  0  0  0  0  0  0
    3.7292   -5.5792    0.0000 C   0  0  0  0  0  0  0  0  0  0  0  0
    3.1792   -7.3000    0.0000 S   0  0  0  0  0  0  0  0  0  0  0  0
    3.1417   -4.9917    0.0000 N   0  0  0  0  0  0  0  0  0  0  0  0
    6.2625   -8.1042    0.0000 C   0  0  0  0  0  0  0  0  0  0  0  0
    2.5542   -6.7500    0.0000 C   0  0  0  0  0  0  0  0  0  0  0  0
    5.6375   -8.6542    0.0000 F   0  0  0  0  0  0  0  0  0  0  0  0
    1.3292   -5.6417    0.0000 C   0  0  0  0  0  0  0  0  0  0  0  0
    6.7042   -6.7500    0.0000 C   0  0  0  0  0  0  0  0  0  0  0  0
    1.7792   -7.0042    0.0000 C   0  0  0  0  0  0  0  0  0  0  0  0
    2.7292   -5.9417    0.0000 C   0  0  0  0  0  0  0  0  0  0  0  0
    2.1167   -5.3875    0.0000 C   0  0  0  0  0  0  0  0  0  0  0  0
    1.1667   -6.4542    0.0000 C   0  0  0  0  0  0  0  0  0  0  0  0
    7.0417   -8.3667    0.0000 C   0  0  0  0  0  0  0  0  0  0  0  0
    0.7167   -5.0917    0.0000 C   0  0  0  0  0  0  0  0  0  0  0  0
    7.4875   -7.0000    0.0000 C   0  0  0  0  0  0  0  0  0  0  0  0
    7.6542   -7.8167    0.0000 C   0  0  0  0  0  0  0  0  0  0  0  0
  2  3  1  0  0  0  0
  3  1  2  0  0  0  0
  4  5  1  0  0  0  0
  5  1  1  0  0  0  0
  6  1  1  0  0  0  0
  7  2  1  0  0  0  0
  8  4  1  0  0  0  0
  9  7  3  0  0  0  0
 10  6  2  0  0  0  0
 11  8  1  0  0  0  0
 12 10  1  0  0  0  0
 13 17  2  0  0  0  0
 14  6  1  0  0  0  0
 15 11  1  0  0  0  0
 16 11  2  0  0  0  0
 17 16  1  0  0  0  0
 18 15  2  0  0  0  0
 19 10  1  0  0  0  0
 20 13  1  0  0  0  0
 21 14  2  0  0  0  0
 22 21  1  0  0  0  0
  2  4  2  0  0  0  0
 19 22  2  0  0  0  0
 18 13  1  0  0  0  0
M  END
>  <Code> (P11181902)
P11181902

>  <Number of H-Donors> (P11181902)
0

>  <Number of H-Acceptors> (P11181902)
3

>  <Number of Rotatable bonds> (P11181902)
3

>  <CLogP> (P11181902)
4.900000000000000e+000

>  <Number of Rings> (P11181902)
3

>  <PSA> (P11181902)
7.509999999999999e+001

$$$$

  -ISIS-  11102212342D

 17 17  0  0  0  0  0  0  0  0999 V2000
    3.7375   -2.8792    0.0000 C   0  0  0  0  0  0  0  0  0  0  0  0
    3.7375   -3.7042    0.0000 C   0  0  0  0  0  0  0  0  0  0  0  0
    3.0167   -2.4667    0.0000 C   0  0  0  0  0  0  0  0  0  0  0  0
    3.0167   -4.1167    0.0000 N   0  0  0  0  0  0  0  0  0  0  0  0
    2.3042   -2.8792    0.0000 C   0  0  0  0  0  0  0  0  0  0  0  0
    2.3042   -3.7042    0.0000 C   0  0  0  0  0  0  0  0  0  0  0  0
    4.4500   -2.4625    0.0000 C   0  0  0  0  0  0  0  0  0  0  0  0
    4.4417   -1.6375    0.0000 O   0  0  0  0  0  0  0  0  0  0  0  0
    1.5917   -2.4667    0.0000 Br  0  0  0  0  0  0  0  0  0  0  0  0
    4.4542   -4.1167    0.0000 O   0  0  0  0  0  0  0  0  0  0  0  0
    3.0167   -1.6417    0.0000 O   0  0  0  0  0  0  0  0  0  0  0  0
    5.1667   -2.8667    0.0000 O   0  0  0  0  0  0  0  0  0  0  0  0
    1.5917   -4.1167    0.0000 C   0  0  0  0  0  0  0  0  0  0  0  0
    5.8792   -2.4542    0.0000 C   0  0  0  0  0  0  0  0  0  0  0  0
    6.5917   -2.8667    0.0000 C   0  0  0  0  0  0  0  0  0  0  0  0
    7.3042   -2.4500    0.0000 C   0  0  0  0  0  0  0  0  0  0  0  0
    8.0250   -2.8625    0.0000 C   0  0  0  0  0  0  0  0  0  0  0  0
  2  1  1  0  0  0  0
  3  1  2  0  0  0  0
  4  2  2  0  0  0  0
  5  3  1  0  0  0  0
  6  5  2  0  0  0  0
  7  1  1  0  0  0  0
  8  7  2  0  0  0  0
  9  5  1  0  0  0  0
 10  2  1  0  0  0  0
 11  3  1  0  0  0  0
 12  7  1  0  0  0  0
 13  6  1  0  0  0  0
 14 12  1  0  0  0  0
 15 14  1  0  0  0  0
 16 15  1  0  0  0  0
 17 16  1  0  0  0  0
  4  6  1  0  0  0  0
M  END
>  <Code> (P11181276)
P11181276

>  <Number of H-Donors> (P11181276)
2

>  <Number of H-Acceptors> (P11181276)
5

>  <Number of Rotatable bonds> (P11181276)
5

>  <CLogP> (P11181276)
2.900000000000000e+000

>  <Number of Rings> (P11181276)
1

>  <PSA> (P11181276)
7.970000000000000e+001

$$$$

  -ISIS-  11102212342D

 23 24  0  0  0  0  0  0  0  0999 V2000
    7.5625   -2.6417    0.0000 S   0  0  3  0  0  0  0  0  0  0  0  0
    8.3792   -2.6250    0.0000 C   0  0  0  0  0  0  0  0  0  0  0  0
    6.7375   -2.6542    0.0000 N   0  0  0  0  0  0  0  0  0  0  0  0
    8.8042   -3.3250    0.0000 C   0  0  0  0  0  0  0  0  0  0  0  0
    7.5542   -1.8167    0.0000 O   0  0  0  0  0  0  0  0  0  0  0  0
    7.5792   -3.4667    0.0000 O   0  0  0  0  0  0  0  0  0  0  0  0
    9.6250   -3.3042    0.0000 C   0  0  0  0  0  0  0  0  0  0  0  0
    8.7750   -1.9042    0.0000 C   0  0  0  0  0  0  0  0  0  0  0  0
    5.9125   -2.6500    0.0000 C   0  0  0  0  0  0  0  0  0  0  0  0
    5.5042   -1.9250    0.0000 C   0  0  0  0  0  0  0  0  0  0  0  0
   10.0167   -2.5917    0.0000 C   0  0  0  0  0  0  0  0  0  0  0  0
    9.5917   -1.8875    0.0000 C   0  0  0  0  0  0  0  0  0  0  0  0
   10.0542   -4.0167    0.0000 C   0  0  3  0  0  0  0  0  0  0  0  0
    4.6792   -1.9167    0.0000 C   0  0  0  0  0  0  0  0  0  0  0  0
    8.3417   -1.2042    0.0000 O   0  0  0  0  0  0  0  0  0  0  0  0
    4.2667   -1.1917    0.0000 O   0  0  0  0  0  0  0  0  0  0  0  0
    4.6667   -3.3542    0.0000 C   0  0  0  0  0  0  0  0  0  0  0  0
    5.4917   -3.3542    0.0000 C   0  0  0  0  0  0  0  0  0  0  0  0
    4.2542   -2.6292    0.0000 C   0  0  0  0  0  0  0  0  0  0  0  0
    9.6542   -4.7375    0.0000 C   0  0  0  0  0  0  0  0  0  0  0  0
   10.8792   -4.0000    0.0000 C   0  0  0  0  0  0  0  0  0  0  0  0
    8.7417   -0.4792    0.0000 C   0  0  0  0  0  0  0  0  0  0  0  0
    8.3125    0.2250    0.0000 C   0  0  0  0  0  0  0  0  0  0  0  0
  2  1  1  0  0  0  0
  3  1  1  0  0  0  0
  4  2  2  0  0  0  0
  5  1  2  0  0  0  0
  6  1  2  0  0  0  0
  7  4  1  0  0  0  0
  8  2  1  0  0  0  0
  9  3  1  0  0  0  0
 10  9  2  0  0  0  0
 11 12  1  0  0  0  0
 12  8  2  0  0  0  0
 13  7  1  0  0  0  0
 14 10  1  0  0  0  0
 15  8  1  0  0  0  0
 16 14  1  0  0  0  0
 17 18  2  0  0  0  0
 18  9  1  0  0  0  0
 19 17  1  0  0  0  0
 20 13  1  0  0  0  0
 21 13  1  0  0  0  0
 22 15  1  0  0  0  0
 23 22  1  0  0  0  0
  7 11  2  0  0  0  0
 14 19  2  0  0  0  0
M  END
>  <Code> (P1114507)
P1114507

>  <Number of H-Donors> (P1114507)
2

>  <Number of H-Acceptors> (P1114507)
4

>  <Number of Rotatable bonds> (P1114507)
6

>  <CLogP> (P1114507)
3.600000000000000e+000

>  <Number of Rings> (P1114507)
2

>  <PSA> (P1114507)
8.400000000000000e+001

$$$$

  -ISIS-  11102212342D

 21 22  0  0  0  0  0  0  0  0999 V2000
    7.6625   -2.2167    0.0000 S   0  0  3  0  0  0  0  0  0  0  0  0
    8.4792   -2.2000    0.0000 C   0  0  0  0  0  0  0  0  0  0  0  0
    6.8375   -2.2292    0.0000 N   0  0  0  0  0  0  0  0  0  0  0  0
    8.9042   -2.9000    0.0000 C   0  0  0  0  0  0  0  0  0  0  0  0
    7.6542   -1.3917    0.0000 O   0  0  0  0  0  0  0  0  0  0  0  0
    7.6792   -3.0417    0.0000 O   0  0  0  0  0  0  0  0  0  0  0  0
    8.8750   -1.4792    0.0000 C   0  0  0  0  0  0  0  0  0  0  0  0
    6.0125   -2.2250    0.0000 C   0  0  0  0  0  0  0  0  0  0  0  0
    5.6042   -1.5000    0.0000 C   0  0  0  0  0  0  0  0  0  0  0  0
    9.6917   -1.4625    0.0000 C   0  0  0  0  0  0  0  0  0  0  0  0
    9.7250   -2.8792    0.0000 C   0  0  0  0  0  0  0  0  0  0  0  0
    4.7792   -1.4917    0.0000 C   0  0  0  0  0  0  0  0  0  0  0  0
   10.1250   -2.1667    0.0000 C   0  0  0  0  0  0  0  0  0  0  0  0
   10.1542   -3.5917    0.0000 Br  0  0  0  0  0  0  0  0  0  0  0  0
    8.4417   -0.7792    0.0000 O   0  0  0  0  0  0  0  0  0  0  0  0
    4.3667   -0.7667    0.0000 O   0  0  0  0  0  0  0  0  0  0  0  0
    4.7667   -2.9292    0.0000 C   0  0  0  0  0  0  0  0  0  0  0  0
    5.5917   -2.9292    0.0000 C   0  0  0  0  0  0  0  0  0  0  0  0
    4.3542   -2.2042    0.0000 C   0  0  0  0  0  0  0  0  0  0  0  0
    8.8417   -0.0542    0.0000 C   0  0  0  0  0  0  0  0  0  0  0  0
    8.4125    0.6500    0.0000 C   0  0  0  0  0  0  0  0  0  0  0  0
  2  1  1  0  0  0  0
  3  1  1  0  0  0  0
  4  2  2  0  0  0  0
  5  1  2  0  0  0  0
  6  1  2  0  0  0  0
  7  2  1  0  0  0  0
  8  3  1  0  0  0  0
  9  8  2  0  0  0  0
 10  7  2  0  0  0  0
 11  4  1  0  0  0  0
 12  9  1  0  0  0  0
 13 10  1  0  0  0  0
 14 11  1  0  0  0  0
 15  7  1  0  0  0  0
 16 12  1  0  0  0  0
 17 18  2  0  0  0  0
 18  8  1  0  0  0  0
 19 17  1  0  0  0  0
 20 15  1  0  0  0  0
 21 20  1  0  0  0  0
 13 11  2  0  0  0  0
 12 19  2  0  0  0  0
M  END
>  <Code> (P1114506)
P1114506

>  <Number of H-Donors> (P1114506)
2

>  <Number of H-Acceptors> (P1114506)
4

>  <Number of Rotatable bonds> (P1114506)
5

>  <CLogP> (P1114506)
3.200000000000000e+000

>  <Number of Rings> (P1114506)
2

>  <PSA> (P1114506)
8.400000000000000e+001

$$$$

  -ISIS-  11102212342D

 18 19  0  0  0  0  0  0  0  0999 V2000
    1.5417   -2.2167    0.0000 S   0  0  3  0  0  0  0  0  0  0  0  0
   -2.0750   -1.8042    0.0000 N   0  0  0  0  0  0  0  0  0  0  0  0
   -2.6458   -2.4125    0.0000 C   0  0  0  0  0  0  0  0  0  0  0  0
   -2.2458   -3.1375    0.0000 S   0  0  0  0  0  0  0  0  0  0  0  0
   -1.3250   -2.1542    0.0000 C   0  0  0  0  0  0  0  0  0  0  0  0
   -1.4333   -2.9792    0.0000 C   0  0  0  0  0  0  0  0  0  0  0  0
    1.9542   -1.5167    0.0000 O   0  0  0  0  0  0  0  0  0  0  0  0
    1.1167   -2.9292    0.0000 O   0  0  0  0  0  0  0  0  0  0  0  0
    0.8292   -1.7917    0.0000 N   0  0  0  0  0  0  0  0  0  0  0  0
   -3.4625   -2.3042    0.0000 C   0  0  0  0  0  0  0  0  0  0  0  0
   -5.1000   -2.0917    0.0000 N   0  0  0  0  0  0  0  0  0  0  0  0
   -0.6000   -1.7625    0.0000 C   0  0  0  0  0  0  0  0  0  0  0  0
    2.2542   -2.6417    0.0000 C   0  0  0  0  0  0  0  0  0  0  0  0
    0.1042   -2.1917    0.0000 C   0  0  0  0  0  0  0  0  0  0  0  0
   -4.5958   -1.4375    0.0000 C   0  0  0  0  0  0  0  0  0  0  0  0
   -4.7833   -2.8625    0.0000 C   0  0  0  0  0  0  0  0  0  0  0  0
   -3.7750   -1.5417    0.0000 C   0  0  0  0  0  0  0  0  0  0  0  0
   -3.9583   -2.9667    0.0000 C   0  0  0  0  0  0  0  0  0  0  0  0
  2  5  1  0  0  0  0
  3  2  2  0  0  0  0
  4  6  1  0  0  0  0
  5 12  1  0  0  0  0
  6  5  2  0  0  0  0
  7  1  2  0  0  0  0
  8  1  2  0  0  0  0
  9  1  1  0  0  0  0
 10  3  1  0  0  0  0
 11 16  1  0  0  0  0
 12 14  1  0  0  0  0
 13  1  1  0  0  0  0
 14  9  1  0  0  0  0
 15 17  1  0  0  0  0
 16 18  2  0  0  0  0
 17 10  2  0  0  0  0
 18 10  1  0  0  0  0
  3  4  1  0  0  0  0
 15 11  2  0  0  0  0
M  END
>  <Code> (P1113518)
P1113518

>  <Number of H-Donors> (P1113518)
1

>  <Number of H-Acceptors> (P1113518)
4

>  <Number of Rotatable bonds> (P1113518)
5

>  <CLogP> (P1113518)
4.000000000000000e-001

>  <Number of Rings> (P1113518)
2

>  <PSA> (P1113518)
1.086000000000000e+002

$$$$

  -ISIS-  11102212342D

 25 27  0  0  0  0  0  0  0  0999 V2000
   -0.2458   -1.7417    0.0000 S   0  0  3  0  0  0  0  0  0  0  0  0
   -3.8625   -1.3625    0.0000 N   0  0  3  0  0  0  0  0  0  0  0  0
   -3.2083   -2.5292    0.0000 N   0  0  0  0  0  0  0  0  0  0  0  0
   -3.1083   -1.7042    0.0000 C   0  0  0  0  0  0  0  0  0  0  0  0
   -4.4208   -1.9667    0.0000 C   0  0  0  0  0  0  0  0  0  0  0  0
   -4.0208   -2.6917    0.0000 C   0  0  0  0  0  0  0  0  0  0  0  0
    0.4667   -2.1625    0.0000 C   0  0  0  0  0  0  0  0  0  0  0  0
    0.1792   -1.0375    0.0000 O   0  0  0  0  0  0  0  0  0  0  0  0
   -0.6583   -2.4542    0.0000 O   0  0  0  0  0  0  0  0  0  0  0  0
   -4.1083   -0.5750    0.0000 C   0  0  0  0  0  0  0  0  0  0  0  0
   -0.9583   -1.3167    0.0000 N   0  0  0  0  0  0  0  0  0  0  0  0
   -2.3833   -1.3042    0.0000 C   0  0  0  0  0  0  0  0  0  0  0  0
   -5.2333   -1.7917    0.0000 C   0  0  0  0  0  0  0  0  0  0  0  0
   -4.9083   -0.3917    0.0000 C   0  0  0  0  0  0  0  0  0  0  0  0
   -5.4750   -1.0000    0.0000 C   0  0  0  0  0  0  0  0  0  0  0  0
    0.4542   -2.9875    0.0000 C   0  0  0  0  0  0  0  0  0  0  0  0
    1.1792   -1.7542    0.0000 C   0  0  0  0  0  0  0  0  0  0  0  0
    2.6042   -3.4125    0.0000 O   0  0  0  0  0  0  0  0  0  0  0  0
    1.8917   -2.9917    0.0000 C   0  0  0  0  0  0  0  0  0  0  0  0
   -1.6708   -1.7250    0.0000 C   0  0  0  0  0  0  0  0  0  0  0  0
    1.8917   -2.1667    0.0000 C   0  0  0  0  0  0  0  0  0  0  0  0
    1.1667   -3.4042    0.0000 C   0  0  0  0  0  0  0  0  0  0  0  0
    3.3167   -3.0042    0.0000 C   0  0  3  0  0  0  0  0  0  0  0  0
    3.3167   -2.1792    0.0000 C   0  0  0  0  0  0  0  0  0  0  0  0
    4.0292   -3.4167    0.0000 C   0  0  0  0  0  0  0  0  0  0  0  0
  2  4  1  0  0  0  0
  3  4  2  0  0  0  0
  4 12  1  0  0  0  0
  5  2  1  0  0  0  0
  6  3  1  0  0  0  0
  7  1  1  0  0  0  0
  8  1  2  0  0  0  0
  9  1  2  0  0  0  0
 10  2  1  0  0  0  0
 11  1  1  0  0  0  0
 12 20  1  0  0  0  0
 13  5  1  0  0  0  0
 14 10  2  0  0  0  0
 15 14  1  0  0  0  0
 16  7  2  0  0  0  0
 17  7  1  0  0  0  0
 18 19  1  0  0  0  0
 19 21  1  0  0  0  0
 20 11  1  0  0  0  0
 21 17  2  0  0  0  0
 22 16  1  0  0  0  0
 23 18  1  0  0  0  0
 24 23  1  0  0  0  0
 25 23  1  0  0  0  0
 22 19  2  0  0  0  0
  6  5  2  0  0  0  0
 13 15  2  0  0  0  0
M  END
>  <Code> (P1112636)
P1112636

>  <Number of H-Donors> (P1112636)
1

>  <Number of H-Acceptors> (P1112636)
4

>  <Number of Rotatable bonds> (P1112636)
7

>  <CLogP> (P1112636)
2.200000000000000e+000

>  <Number of Rings> (P1112636)
3

>  <PSA> (P1112636)
8.110000000000001e+001

$$$$

  -ISIS-  11102212342D

 27 30  0  0  0  0  0  0  0  0999 V2000
   -0.0958   -1.1292    0.0000 S   0  0  3  0  0  0  0  0  0  0  0  0
    2.8292   -2.6292    0.0000 N   0  0  3  0  0  0  0  0  0  0  0  0
   -3.7000   -0.7917    0.0000 N   0  0  3  0  0  0  0  0  0  0  0  0
   -3.0333   -1.9500    0.0000 N   0  0  0  0  0  0  0  0  0  0  0  0
   -2.9458   -1.1292    0.0000 C   0  0  0  0  0  0  0  0  0  0  0  0
    2.0417   -2.3750    0.0000 C   0  0  0  0  0  0  0  0  0  0  0  0
   -4.2500   -1.4042    0.0000 C   0  0  0  0  0  0  0  0  0  0  0  0
    0.6167   -1.5417    0.0000 C   0  0  0  0  0  0  0  0  0  0  0  0
   -3.8375   -2.1167    0.0000 C   0  0  0  0  0  0  0  0  0  0  0  0
    2.0417   -1.5500    0.0000 C   0  0  0  0  0  0  0  0  0  0  0  0
    3.0792   -3.4167    0.0000 C   0  0  0  0  0  0  0  0  0  0  0  0
    3.3042   -1.9625    0.0000 C   0  0  0  0  0  0  0  0  0  0  0  0
    1.3292   -1.1375    0.0000 C   0  0  0  0  0  0  0  0  0  0  0  0
    1.3167   -2.7875    0.0000 C   0  0  0  0  0  0  0  0  0  0  0  0
   -0.5083   -1.8417    0.0000 O   0  0  0  0  0  0  0  0  0  0  0  0
    0.3292   -0.4167    0.0000 O   0  0  0  0  0  0  0  0  0  0  0  0
   -3.9583   -0.0167    0.0000 C   0  0  0  0  0  0  0  0  0  0  0  0
   -0.8083   -0.7167    0.0000 N   0  0  0  0  0  0  0  0  0  0  0  0
   -2.2333   -0.7167    0.0000 C   0  0  0  0  0  0  0  0  0  0  0  0
    2.8292   -1.2917    0.0000 C   0  0  0  0  0  0  0  0  0  0  0  0
   -5.0583   -1.2375    0.0000 C   0  0  0  0  0  0  0  0  0  0  0  0
    0.6042   -2.3667    0.0000 C   0  0  0  0  0  0  0  0  0  0  0  0
    2.5292   -4.0292    0.0000 O   0  0  0  0  0  0  0  0  0  0  0  0
   -4.7583    0.1583    0.0000 C   0  0  0  0  0  0  0  0  0  0  0  0
   -5.3083   -0.4542    0.0000 C   0  0  0  0  0  0  0  0  0  0  0  0
   -1.5208   -1.1292    0.0000 C   0  0  0  0  0  0  0  0  0  0  0  0
    3.8792   -3.5875    0.0000 C   0  0  0  0  0  0  0  0  0  0  0  0
  2  6  1  0  0  0  0
  3  5  1  0  0  0  0
  4  5  2  0  0  0  0
  5 19  1  0  0  0  0
  6 14  2  0  0  0  0
  7  3  1  0  0  0  0
  8  1  1  0  0  0  0
  9  4  1  0  0  0  0
 10 13  2  0  0  0  0
 11  2  1  0  0  0  0
 12 20  1  0  0  0  0
 13  8  1  0  0  0  0
 14 22  1  0  0  0  0
 15  1  2  0  0  0  0
 16  1  2  0  0  0  0
 17  3  1  0  0  0  0
 18  1  1  0  0  0  0
 19 26  1  0  0  0  0
 20 10  1  0  0  0  0
 21  7  1  0  0  0  0
 22  8  2  0  0  0  0
 23 11  2  0  0  0  0
 24 17  2  0  0  0  0
 25 24  1  0  0  0  0
 26 18  1  0  0  0  0
 27 11  1  0  0  0  0
 10  6  1  0  0  0  0
  2 12  1  0  0  0  0
  9  7  2  0  0  0  0
 21 25  2  0  0  0  0
M  END
>  <Code> (P1112630)
P1112630

>  <Number of H-Donors> (P1112630)
1

>  <Number of H-Acceptors> (P1112630)
4

>  <Number of Rotatable bonds> (P1112630)
5

>  <CLogP> (P1112630)
9.000000000000000e-001

>  <Number of Rings> (P1112630)
4

>  <PSA> (P1112630)
9.219999999999999e+001

$$$$

  -ISIS-  11102212342D

 23 25  0  0  0  0  0  0  0  0999 V2000
    1.5500   -1.6500    0.0000 C   0  0  0  0  0  0  0  0  0  0  0  0
    0.8375   -1.2292    0.0000 C   0  0  0  0  0  0  0  0  0  0  0  0
    2.2542   -1.2292    0.0000 C   0  0  0  0  0  0  0  0  0  0  0  0
    0.1167   -1.6417    0.0000 C   0  0  0  0  0  0  0  0  0  0  0  0
    1.5500   -2.4750    0.0000 N   0  0  0  0  0  0  0  0  0  0  0  0
    0.8375   -0.4042    0.0000 C   0  0  0  0  0  0  0  0  0  0  0  0
   -0.5958   -1.2292    0.0000 C   0  0  0  0  0  0  0  0  0  0  0  0
    2.2667   -0.4125    0.0000 C   0  0  0  0  0  0  0  0  0  0  0  0
    2.9792   -2.4750    0.0000 N   0  0  0  0  0  0  0  0  0  0  0  0
    2.2542   -2.8875    0.0000 C   0  0  0  0  0  0  0  0  0  0  0  0
    2.9792   -0.0000    0.0000 C   0  0  0  0  0  0  0  0  0  0  0  0
    1.5542   -0.0000    0.0000 C   0  0  0  0  0  0  0  0  0  0  0  0
   -0.5958   -0.4042    0.0000 C   0  0  0  0  0  0  0  0  0  0  0  0
    2.9792   -1.6500    0.0000 C   0  0  0  0  0  0  0  0  0  0  0  0
    0.1167   -2.4667    0.0000 O   0  0  0  0  0  0  0  0  0  0  0  0
    0.1167    0.0083    0.0000 C   0  0  0  0  0  0  0  0  0  0  0  0
    2.2667    1.2375    0.0000 C   0  0  0  0  0  0  0  0  0  0  0  0
    2.9792    0.8250    0.0000 C   0  0  0  0  0  0  0  0  0  0  0  0
    1.5500    0.8208    0.0000 C   0  0  0  0  0  0  0  0  0  0  0  0
    2.2542    2.0708    0.0000 Br  0  0  0  0  0  0  0  0  0  0  0  0
   -1.3083    0.0083    0.0000 O   0  0  0  0  0  0  0  0  0  0  0  0
   -2.0208   -0.4042    0.0000 C   0  0  0  0  0  0  0  0  0  0  0  0
   -2.0208   -1.2292    0.0000 C   0  0  0  0  0  0  0  0  0  0  0  0
  2  1  1  0  0  0  0
  3  1  1  0  0  0  0
  4  2  2  0  0  0  0
  5  1  2  0  0  0  0
  6  2  1  0  0  0  0
  7  4  1  0  0  0  0
  8  3  1  0  0  0  0
  9 10  2  0  0  0  0
 10  5  1  0  0  0  0
 11  8  2  0  0  0  0
 12  8  1  0  0  0  0
 13 16  1  0  0  0  0
 14  3  2  0  0  0  0
 15  4  1  0  0  0  0
 16  6  2  0  0  0  0
 17 19  1  0  0  0  0
 18 11  1  0  0  0  0
 19 12  2  0  0  0  0
 20 17  1  0  0  0  0
 21 13  1  0  0  0  0
 22 21  1  0  0  0  0
 23 22  1  0  0  0  0
 14  9  1  0  0  0  0
 18 17  2  0  0  0  0
 13  7  2  0  0  0  0
M  END
>  <Code> (P1111363)
P1111363

>  <Number of H-Donors> (P1111363)
1

>  <Number of H-Acceptors> (P1111363)
4

>  <Number of Rotatable bonds> (P1111363)
4

>  <CLogP> (P1111363)
4.400000000000000e+000

>  <Number of Rings> (P1111363)
3

>  <PSA> (P1111363)
5.520000000000000e+001

$$$$

  -ISIS-  11102212342D

 29 33  0  0  0  0  0  0  0  0999 V2000
    7.2500   -4.2167    0.0000 C   0  0  0  0  0  0  0  0  0  0  0  0
    7.9125   -4.7125    0.0000 C   0  0  0  0  0  0  0  0  0  0  0  0
    7.2542   -3.3917    0.0000 C   0  0  0  0  0  0  0  0  0  0  0  0
    6.5792   -4.7125    0.0000 O   0  0  0  0  0  0  0  0  0  0  0  0
    8.7042   -4.4625    0.0000 N   0  0  0  0  0  0  0  0  0  0  0  0
    7.6667   -5.5000    0.0000 C   0  0  0  0  0  0  0  0  0  0  0  0
    6.5417   -2.9792    0.0000 C   0  0  0  0  0  0  0  0  0  0  0  0
    6.5542   -2.1542    0.0000 C   0  0  0  0  0  0  0  0  0  0  0  0
    9.3167   -5.0125    0.0000 C   0  0  0  0  0  0  0  0  0  0  0  0
    7.9750   -2.9792    0.0000 C   0  0  0  0  0  0  0  0  0  0  0  0
    7.2667   -1.7417    0.0000 O   0  0  0  0  0  0  0  0  0  0  0  0
    6.8417   -5.4917    0.0000 C   0  0  0  0  0  0  0  0  0  0  0  0
    7.9750   -2.1542    0.0000 C   0  0  0  0  0  0  0  0  0  0  0  0
   10.1000   -4.7625    0.0000 C   0  0  0  0  0  0  0  0  0  0  0  0
    5.8292   -3.3917    0.0000 C   0  0  0  0  0  0  0  0  0  0  0  0
   10.3542   -3.9792    0.0000 O   0  0  0  0  0  0  0  0  0  0  0  0
    5.8417   -1.7375    0.0000 C   0  0  0  0  0  0  0  0  0  0  0  0
    9.1417   -5.8167    0.0000 O   0  0  0  0  0  0  0  0  0  0  0  0
   10.7667   -5.2417    0.0000 C   0  0  0  0  0  0  0  0  0  0  0  0
    8.6917   -1.7542    0.0000 O   0  0  0  0  0  0  0  0  0  0  0  0
   11.1875   -3.9792    0.0000 C   0  0  0  0  0  0  0  0  0  0  0  0
   11.4417   -4.7625    0.0000 C   0  0  0  0  0  0  0  0  0  0  0  0
    5.1167   -2.9750    0.0000 C   0  0  0  0  0  0  0  0  0  0  0  0
    5.1250   -2.1417    0.0000 C   0  0  0  0  0  0  0  0  0  0  0  0
    8.0667   -6.2000    0.0000 C   0  0  0  0  0  0  0  0  0  0  0  0
    6.4250   -6.2000    0.0000 C   0  0  0  0  0  0  0  0  0  0  0  0
    4.4125   -1.7292    0.0000 C   0  0  0  0  0  0  0  0  0  0  0  0
    7.6667   -6.9167    0.0000 C   0  0  0  0  0  0  0  0  0  0  0  0
    6.8292   -6.9167    0.0000 C   0  0  0  0  0  0  0  0  0  0  0  0
  2  1  2  0  0  0  0
  3  1  1  0  0  0  0
  4  1  1  0  0  0  0
  5  2  1  0  0  0  0
  6  2  1  0  0  0  0
  7  3  1  0  0  0  0
  8  7  2  0  0  0  0
  9  5  1  0  0  0  0
 10  3  2  0  0  0  0
 11 13  1  0  0  0  0
 12  4  1  0  0  0  0
 13 10  1  0  0  0  0
 14  9  1  0  0  0  0
 15  7  1  0  0  0  0
 16 14  1  0  0  0  0
 17  8  1  0  0  0  0
 18  9  2  0  0  0  0
 19 14  2  0  0  0  0
 20 13  2  0  0  0  0
 21 16  1  0  0  0  0
 22 19  1  0  0  0  0
 23 15  2  0  0  0  0
 24 23  1  0  0  0  0
 25  6  1  0  0  0  0
 26 12  1  0  0  0  0
 27 24  1  0  0  0  0
 28 25  2  0  0  0  0
 29 26  2  0  0  0  0
  6 12  2  0  0  0  0
 29 28  1  0  0  0  0
 11  8  1  0  0  0  0
 17 24  2  0  0  0  0
 22 21  2  0  0  0  0
M  END
>  <Code> (P1111222)
P1111222

>  <Number of H-Donors> (P1111222)
1

>  <Number of H-Acceptors> (P1111222)
3

>  <Number of Rotatable bonds> (P1111222)
3

>  <CLogP> (P1111222)
4.600000000000000e+000

>  <Number of Rings> (P1111222)
5

>  <PSA> (P1111222)
8.170000000000000e+001

$$$$

  -ISIS-  11102212342D

 29 33  0  0  0  0  0  0  0  0999 V2000
    4.0417   -1.0500    0.0000 C   0  0  1  0  0  0  0  0  0  0  0  0
    4.0417   -1.9000    0.0000 C   0  0  3  0  0  0  0  0  0  0  0  0
    3.3375   -2.2792    0.0000 C   0  0  3  0  0  0  0  0  0  0  0  0
    2.6292   -1.9000    0.0000 C   0  0  3  0  0  0  0  0  0  0  0  0
    1.9125   -2.2792    0.0000 C   0  0  0  0  0  0  0  0  0  0  0  0
    4.8542   -0.8125    0.0000 C   0  0  2  0  0  0  0  0  0  0  0  0
    4.8542   -2.1250    0.0000 C   0  0  0  0  0  0  0  0  0  0  0  0
    1.9125   -3.1250    0.0000 C   0  0  0  0  0  0  0  0  0  0  0  0
    5.3417   -1.4500    0.0000 C   0  0  1  0  0  0  0  0  0  0  0  0
    3.3375   -0.6625    0.0000 C   0  0  0  0  0  0  0  0  0  0  0  0
    2.6292   -1.0500    0.0000 C   0  0  0  0  0  0  0  0  0  0  0  0
    3.3375   -3.1250    0.0000 C   0  0  0  0  0  0  0  0  0  0  0  0
    1.2042   -1.9000    0.0000 C   0  0  0  0  0  0  0  0  0  0  0  0
    2.6292   -3.5292    0.0000 C   0  0  0  0  0  0  0  0  0  0  0  0
    1.2042   -3.5292    0.0000 C   0  0  0  0  0  0  0  0  0  0  0  0
    0.4750   -3.1250    0.0000 C   0  0  0  0  0  0  0  0  0  0  0  0
   -0.2333   -3.5667    0.0000 O   0  0  0  0  0  0  0  0  0  0  0  0
    5.0500   -0.0125    0.0000 O   0  0  0  0  0  0  0  0  0  0  0  0
    0.4750   -2.2792    0.0000 C   0  0  0  0  0  0  0  0  0  0  0  0
    4.0417   -0.1875    0.0000 C   0  0  0  0  0  0  0  0  0  0  0  0
    6.1917   -1.4500    0.0000 O   0  0  0  0  0  0  0  0  0  0  0  0
   -3.0583   -4.5000    0.0000 C   0  0  0  0  0  0  0  0  0  0  0  0
   -1.6708   -3.6250    0.0000 C   0  0  0  0  0  0  0  0  0  0  0  0
   -0.9625   -3.1792    0.0000 C   0  0  0  0  0  0  0  0  0  0  0  0
   -3.7750   -4.9042    0.0000 F   0  0  0  0  0  0  0  0  0  0  0  0
   -2.3250   -4.8792    0.0000 C   0  0  0  0  0  0  0  0  0  0  0  0
   -3.0875   -3.6750    0.0000 C   0  0  0  0  0  0  0  0  0  0  0  0
   -1.6250   -4.4417    0.0000 C   0  0  0  0  0  0  0  0  0  0  0  0
   -2.3833   -3.2292    0.0000 C   0  0  0  0  0  0  0  0  0  0  0  0
  2  1  1  0  0  0  0
  3  2  1  0  0  0  0
  4 11  1  0  0  0  0
  5  4  1  0  0  0  0
  6  1  1  0  0  0  0
  7  2  1  0  0  0  0
  8  5  2  0  0  0  0
  9  6  1  0  0  0  0
 10  1  1  0  0  0  0
 11 10  1  0  0  0  0
 12  3  1  0  0  0  0
 13  5  1  0  0  0  0
 14 12  1  0  0  0  0
 15  8  1  0  0  0  0
 16 19  1  0  0  0  0
 17 16  1  0  0  0  0
  6 18  1  1  0  0  0
 19 13  2  0  0  0  0
  1 20  1  1  0  0  0
  9 21  1  6  0  0  0
 22 27  2  0  0  0  0
 23 24  1  0  0  0  0
 24 17  1  0  0  0  0
 25 22  1  0  0  0  0
 26 28  2  0  0  0  0
 27 29  1  0  0  0  0
 28 23  1  0  0  0  0
 29 23  2  0  0  0  0
  7  9  1  0  0  0  0
  3  4  1  0  0  0  0
 14  8  1  0  0  0  0
 15 16  2  0  0  0  0
 26 22  1  0  0  0  0
M  END
>  <Code> (P1109064)
P1109064

>  <Number of H-Donors> (P1109064)
2

>  <Number of H-Acceptors> (P1109064)
3

>  <Number of Rotatable bonds> (P1109064)
3

>  <CLogP> (P1109064)
4.900000000000000e+000

>  <Number of Rings> (P1109064)
5

>  <PSA> (P1109064)
4.970000000000000e+001

$$$$

  -ISIS-  11102212342D

 25 27  0  0  0  0  0  0  0  0999 V2000
    2.3417   -1.1500    0.0000 C   0  0  0  0  0  0  0  0  0  0  0  0
    3.0542   -0.7375    0.0000 C   0  0  0  0  0  0  0  0  0  0  0  0
    1.6250   -0.7417    0.0000 C   0  0  0  0  0  0  0  0  0  0  0  0
    2.3417   -1.9792    0.0000 N   0  0  0  0  0  0  0  0  0  0  0  0
    3.7667   -1.1417    0.0000 C   0  0  0  0  0  0  0  0  0  0  0  0
    3.7667   -1.9750    0.0000 N   0  0  0  0  0  0  0  0  0  0  0  0
    3.0542   -2.3917    0.0000 C   0  0  0  0  0  0  0  0  0  0  0  0
    0.9042   -1.1542    0.0000 C   0  0  0  0  0  0  0  0  0  0  0  0
    1.6250    0.0958    0.0000 C   0  0  0  0  0  0  0  0  0  0  0  0
    0.1917   -0.7417    0.0000 C   0  0  0  0  0  0  0  0  0  0  0  0
    3.0417    0.0875    0.0000 C   0  0  0  0  0  0  0  0  0  0  0  0
    3.0542   -3.2167    0.0000 N   0  0  0  0  0  0  0  0  0  0  0  0
    2.3292    0.4958    0.0000 C   0  0  0  0  0  0  0  0  0  0  0  0
    3.7542    0.5000    0.0000 C   0  0  0  0  0  0  0  0  0  0  0  0
    0.1917    0.0958    0.0000 C   0  0  0  0  0  0  0  0  0  0  0  0
    0.9042   -1.9792    0.0000 O   0  0  0  0  0  0  0  0  0  0  0  0
    0.9042    0.5083    0.0000 C   0  0  0  0  0  0  0  0  0  0  0  0
    3.0417    1.7375    0.0000 C   0  0  0  0  0  0  0  0  0  0  0  0
    3.7542    1.3250    0.0000 C   0  0  0  0  0  0  0  0  0  0  0  0
    2.3167    1.3208    0.0000 C   0  0  0  0  0  0  0  0  0  0  0  0
    3.0292    2.5708    0.0000 Cl  0  0  0  0  0  0  0  0  0  0  0  0
    4.4792   -0.7292    0.0000 C   0  0  0  0  0  0  0  0  0  0  0  0
   -0.5250    0.5000    0.0000 O   0  0  0  0  0  0  0  0  0  0  0  0
   -1.2375    0.0875    0.0000 C   0  0  0  0  0  0  0  0  0  0  0  0
   -1.9500    0.5000    0.0000 C   0  0  0  0  0  0  0  0  0  0  0  0
  2  1  1  0  0  0  0
  3  1  1  0  0  0  0
  4  1  2  0  0  0  0
  5  2  2  0  0  0  0
  6  7  2  0  0  0  0
  7  4  1  0  0  0  0
  8  3  2  0  0  0  0
  9  3  1  0  0  0  0
 10  8  1  0  0  0  0
 11  2  1  0  0  0  0
 12  7  1  0  0  0  0
 13 11  1  0  0  0  0
 14 11  2  0  0  0  0
 15 17  1  0  0  0  0
 16  8  1  0  0  0  0
 17  9  2  0  0  0  0
 18 19  2  0  0  0  0
 19 14  1  0  0  0  0
 20 13  2  0  0  0  0
 21 18  1  0  0  0  0
 22  5  1  0  0  0  0
 23 15  1  0  0  0  0
 24 23  1  0  0  0  0
 25 24  1  0  0  0  0
  5  6  1  0  0  0  0
 10 15  2  0  0  0  0
 18 20  1  0  0  0  0
M  END
>  <Code> (P1105850)
P1105850

>  <Number of H-Donors> (P1105850)
2

>  <Number of H-Acceptors> (P1105850)
5

>  <Number of Rotatable bonds> (P1105850)
4

>  <CLogP> (P1105850)
4.300000000000000e+000

>  <Number of Rings> (P1105850)
3

>  <PSA> (P1105850)
8.129999999999998e+001

$$$$

  -ISIS-  11102212342D

 20 22  0  0  0  0  0  0  0  0999 V2000
    5.0667   -1.2917    0.0000 C   0  0  0  0  0  0  0  0  0  0  0  0
    5.7875   -1.7042    0.0000 C   0  0  0  0  0  0  0  0  0  0  0  0
    5.0667   -0.4625    0.0000 C   0  0  0  0  0  0  0  0  0  0  0  0
    4.3542   -1.7042    0.0000 C   0  0  0  0  0  0  0  0  0  0  0  0
    3.6417   -1.2917    0.0000 C   0  0  0  0  0  0  0  0  0  0  0  0
    4.3542   -0.0500    0.0000 C   0  0  0  0  0  0  0  0  0  0  0  0
    3.6417   -0.4667    0.0000 C   0  0  0  0  0  0  0  0  0  0  0  0
    5.8750   -2.5250    0.0000 N   0  0  0  0  0  0  0  0  0  0  0  0
    6.5417   -1.3667    0.0000 C   0  0  0  0  0  0  0  0  0  0  0  0
    6.6792   -2.6917    0.0000 N   0  0  0  0  0  0  0  0  0  0  0  0
    7.0917   -1.9750    0.0000 C   0  0  0  0  0  0  0  0  0  0  0  0
    2.8625   -0.2125    0.0000 O   0  0  0  0  0  0  0  0  0  0  0  0
    2.8625   -1.5417    0.0000 C   0  0  0  0  0  0  0  0  0  0  0  0
    2.3750   -0.8792    0.0000 C   0  0  0  0  0  0  0  0  0  0  0  0
    5.7875   -0.0417    0.0000 O   0  0  0  0  0  0  0  0  0  0  0  0
    4.3542   -2.5292    0.0000 O   0  0  0  0  0  0  0  0  0  0  0  0
    4.3542    0.7750    0.0000 O   0  0  0  0  0  0  0  0  0  0  0  0
    7.9125   -1.8917    0.0000 C   0  0  0  0  0  0  0  0  0  0  0  0
    3.6417   -2.9417    0.0000 C   0  0  0  0  0  0  0  0  0  0  0  0
    5.0667    1.1875    0.0000 C   0  0  0  0  0  0  0  0  0  0  0  0
  2  1  1  0  0  0  0
  3  1  1  0  0  0  0
  4  1  2  0  0  0  0
  5  4  1  0  0  0  0
  6  3  2  0  0  0  0
  7  5  2  0  0  0  0
  8  2  1  0  0  0  0
  9  2  2  0  0  0  0
 10  8  1  0  0  0  0
 11  9  1  0  0  0  0
 12  7  1  0  0  0  0
 13  5  1  0  0  0  0
 14 13  2  0  0  0  0
 15  3  1  0  0  0  0
 16  4  1  0  0  0  0
 17  6  1  0  0  0  0
 18 11  1  0  0  0  0
 19 16  1  0  0  0  0
 20 17  1  0  0  0  0
  6  7  1  0  0  0  0
 10 11  2  0  0  0  0
 12 14  1  0  0  0  0
M  END
>  <Code> (P1099357)
P1099357

>  <Number of H-Donors> (P1099357)
2

>  <Number of H-Acceptors> (P1099357)
4

>  <Number of Rotatable bonds> (P1099357)
3

>  <CLogP> (P1099357)
2.400000000000000e+000

>  <Number of Rings> (P1099357)
3

>  <PSA> (P1099357)
8.050000000000000e+001

$$$$

  -ISIS-  11102212342D

 23 25  0  0  0  0  0  0  0  0999 V2000
    4.4125    1.6708    0.0000 C   0  0  0  0  0  0  0  0  0  0  0  0
    3.8000    1.1208    0.0000 C   0  0  0  0  0  0  0  0  0  0  0  0
    4.2875    2.4958    0.0000 C   0  0  0  0  0  0  0  0  0  0  0  0
    3.5792    2.9083    0.0000 C   0  0  0  0  0  0  0  0  0  0  0  0
    3.0042    1.3333    0.0000 N   0  0  0  0  0  0  0  0  0  0  0  0
    3.8500    0.3083    0.0000 S   0  0  0  0  0  0  0  0  0  0  0  0
    5.0292    2.8583    0.0000 N   0  0  0  0  0  0  0  0  0  0  0  0
    3.5792    3.7333    0.0000 C   0  0  0  0  0  0  0  0  0  0  0  0
    2.8625    2.4958    0.0000 C   0  0  0  0  0  0  0  0  0  0  0  0
    5.6042    2.2583    0.0000 N   0  0  0  0  0  0  0  0  0  0  0  0
    2.8625    4.1375    0.0000 C   0  0  0  0  0  0  0  0  0  0  0  0
    2.5625    0.6333    0.0000 C   0  0  0  0  0  0  0  0  0  0  0  0
    5.2250    1.5333    0.0000 C   0  0  0  0  0  0  0  0  0  0  0  0
    2.1417    3.7333    0.0000 C   0  0  0  0  0  0  0  0  0  0  0  0
    3.0792   -0.0000    0.0000 C   0  0  0  0  0  0  0  0  0  0  0  0
    2.1417    2.9083    0.0000 C   0  0  0  0  0  0  0  0  0  0  0  0
    4.2917    4.1375    0.0000 O   0  0  0  0  0  0  0  0  0  0  0  0
    1.4250    4.1417    0.0000 O   0  0  0  0  0  0  0  0  0  0  0  0
    1.4250    2.4750    0.0000 C   0  0  0  0  0  0  0  0  0  0  0  0
    1.7375    0.5833    0.0000 C   0  0  0  0  0  0  0  0  0  0  0  0
    0.7042    3.7333    0.0000 C   0  0  0  0  0  0  0  0  0  0  0  0
    1.4292    1.6583    0.0000 C   0  0  0  0  0  0  0  0  0  0  0  0
    0.0000    4.1417    0.0000 C   0  0  0  0  0  0  0  0  0  0  0  0
  2  1  1  0  0  0  0
  3  1  1  0  0  0  0
  4  3  1  0  0  0  0
  5  2  2  0  0  0  0
  6  2  1  0  0  0  0
  7  3  2  0  0  0  0
  8  4  1  0  0  0  0
  9  4  2  0  0  0  0
 10 13  1  0  0  0  0
 11  8  2  0  0  0  0
 12  5  1  0  0  0  0
 13  1  2  0  0  0  0
 14 16  2  0  0  0  0
 15  6  1  0  0  0  0
 16  9  1  0  0  0  0
 17  8  1  0  0  0  0
 18 14  1  0  0  0  0
 19 16  1  0  0  0  0
 20 12  1  0  0  0  0
 21 18  1  0  0  0  0
 22 19  1  0  0  0  0
 23 21  1  0  0  0  0
 10  7  1  0  0  0  0
 12 15  2  0  0  0  0
 11 14  1  0  0  0  0
M  END
>  <Code> (P1099299)
P1099299

>  <Number of H-Donors> (P1099299)
2

>  <Number of H-Acceptors> (P1099299)
4

>  <Number of Rotatable bonds> (P1099299)
5

>  <CLogP> (P1099299)
3.900000000000000e+000

>  <Number of Rings> (P1099299)
3

>  <PSA> (P1099299)
9.930000000000000e+001

$$$$

  -ISIS-  11102212342D

 27 28  0  0  0  0  0  0  0  0999 V2000
    4.5292   -8.6417    0.0000 N   0  0  0  0  0  0  0  0  0  0  0  0
    4.5292   -7.8125    0.0000 N   0  0  3  0  0  0  0  0  0  0  0  0
    3.8042   -7.3917    0.0000 C   0  0  0  0  0  0  0  0  0  0  0  0
    3.8042   -9.0542    0.0000 N   0  0  0  0  0  0  0  0  0  0  0  0
    3.0917   -7.8125    0.0000 C   0  0  0  0  0  0  0  0  0  0  0  0
    9.5292   -4.1292    0.0000 C   0  0  0  0  0  0  0  0  0  0  0  0
    3.0917   -8.6417    0.0000 C   0  0  0  0  0  0  0  0  0  0  0  0
    6.6667   -7.4125    0.0000 C   0  0  0  0  0  0  0  0  0  0  0  0
    8.8042   -7.8292    0.0000 C   0  0  0  0  0  0  0  0  0  0  0  0
    7.3792   -7.8167    0.0000 N   0  0  0  0  0  0  0  0  0  0  0  0
    5.9542   -7.8167    0.0000 C   0  0  0  0  0  0  0  0  0  0  0  0
    5.2417   -7.4042    0.0000 C   0  0  0  0  0  0  0  0  0  0  0  0
    8.0917   -7.4167    0.0000 C   0  0  1  0  0  0  0  0  0  0  0  0
    8.8125   -3.7167    0.0000 N   0  0  0  0  0  0  0  0  0  0  0  0
    3.8042   -6.5667    0.0000 O   0  0  0  0  0  0  0  0  0  0  0  0
    8.7917   -8.6542    0.0000 O   0  0  0  0  0  0  0  0  0  0  0  0
    6.6750   -6.5875    0.0000 O   0  0  0  0  0  0  0  0  0  0  0  0
    9.5250   -4.9542    0.0000 N   0  0  0  0  0  0  0  0  0  0  0  0
   10.2417   -3.7167    0.0000 N   0  0  0  0  0  0  0  0  0  0  0  0
    9.5167   -7.4167    0.0000 O   0  0  0  0  0  0  0  0  0  0  0  0
    2.3792   -7.3917    0.0000 C   0  0  0  0  0  0  0  0  0  0  0  0
    2.3792   -9.0542    0.0000 C   0  0  0  0  0  0  0  0  0  0  0  0
    8.0917   -6.5917    0.0000 C   0  0  0  0  0  0  0  0  0  0  0  0
    8.8125   -5.3625    0.0000 C   0  0  0  0  0  0  0  0  0  0  0  0
    8.8042   -6.1875    0.0000 C   0  0  0  0  0  0  0  0  0  0  0  0
    1.6625   -7.8125    0.0000 C   0  0  0  0  0  0  0  0  0  0  0  0
    1.6625   -8.6417    0.0000 C   0  0  0  0  0  0  0  0  0  0  0  0
  2  1  1  0  0  0  0
  3  2  1  0  0  0  0
  4  1  2  0  0  0  0
  5  7  1  0  0  0  0
  6 18  1  0  0  0  0
  7  4  1  0  0  0  0
  8 11  1  0  0  0  0
  9 13  1  0  0  0  0
 10  8  1  0  0  0  0
 11 12  1  0  0  0  0
 12  2  1  0  0  0  0
 13 10  1  0  0  0  0
 14  6  2  0  0  0  0
 15  3  2  0  0  0  0
 16  9  2  0  0  0  0
 17  8  2  0  0  0  0
 18 24  1  0  0  0  0
 19  6  1  0  0  0  0
 20  9  1  0  0  0  0
 21  5  2  0  0  0  0
 22  7  2  0  0  0  0
 13 23  1  1  0  0  0
 24 25  1  0  0  0  0
 25 23  1  0  0  0  0
 26 27  2  0  0  0  0
 27 22  1  0  0  0  0
  3  5  1  0  0  0  0
 26 21  1  0  0  0  0
M  END
>  <Code> (P1098888)
P1098888

>  <Number of H-Donors> (P1098888)
5

>  <Number of H-Acceptors> (P1098888)
7

>  <Number of Rotatable bonds> (P1098888)
10

>  <CLogP> (P1098888)
4.000000000000000e-001

>  <Number of Rings> (P1098888)
2

>  <PSA> (P1098888)
1.733000000000000e+002

$$$$

  -ISIS-  11102212342D

 26 28  0  0  0  0  0  0  0  0999 V2000
    4.5625   -5.2417    0.0000 C   0  0  0  0  0  0  0  0  0  0  0  0
    3.8542   -4.8375    0.0000 C   0  0  0  0  0  0  0  0  0  0  0  0
    5.2792   -4.0042    0.0000 C   0  0  0  0  0  0  0  0  0  0  0  0
    5.2792   -4.8375    0.0000 C   0  0  0  0  0  0  0  0  0  0  0  0
    3.8542   -4.0042    0.0000 C   0  0  0  0  0  0  0  0  0  0  0  0
    4.5625   -3.6000    0.0000 O   0  0  0  0  0  0  0  0  0  0  0  0
    3.1375   -5.2417    0.0000 C   0  0  0  0  0  0  0  0  0  0  0  0
    3.1375   -6.0667    0.0000 O   0  0  0  0  0  0  0  0  0  0  0  0
    1.7125   -6.0542    0.0000 C   0  0  0  0  0  0  0  0  0  0  0  0
    0.9917   -6.4667    0.0000 C   0  0  0  0  0  0  0  0  0  0  0  0
    3.1375   -3.6000    0.0000 C   0  0  0  0  0  0  0  0  0  0  0  0
    2.4167   -4.8375    0.0000 C   0  0  0  0  0  0  0  0  0  0  0  0
    6.0042   -3.6000    0.0000 O   0  0  0  0  0  0  0  0  0  0  0  0
    2.4167   -6.4792    0.0000 C   0  0  0  0  0  0  0  0  0  0  0  0
    0.2792   -6.0417    0.0000 C   0  0  0  0  0  0  0  0  0  0  0  0
    2.4167   -4.0042    0.0000 C   0  0  0  0  0  0  0  0  0  0  0  0
    1.7125   -5.2292    0.0000 O   0  0  0  0  0  0  0  0  0  0  0  0
    4.5625   -6.0667    0.0000 C   0  0  0  0  0  0  0  0  0  0  0  0
   -0.4375   -6.4500    0.0000 C   0  0  0  0  0  0  0  0  0  0  0  0
    6.0042   -5.2542    0.0000 C   0  0  0  0  0  0  0  0  0  0  0  0
   -1.1500   -6.0250    0.0000 O   0  0  0  0  0  0  0  0  0  0  0  0
    0.9917   -7.2792    0.0000 C   0  0  0  0  0  0  0  0  0  0  0  0
    0.2667   -7.6917    0.0000 C   0  0  0  0  0  0  0  0  0  0  0  0
    1.7000   -3.6000    0.0000 C   0  0  0  0  0  0  0  0  0  0  0  0
   -0.4500   -7.2750    0.0000 C   0  0  0  0  0  0  0  0  0  0  0  0
   -1.8625   -6.4375    0.0000 C   0  0  0  0  0  0  0  0  0  0  0  0
  2  1  1  0  0  0  0
  3  4  1  0  0  0  0
  4  1  2  0  0  0  0
  5  2  1  0  0  0  0
  6  3  1  0  0  0  0
  7  2  2  0  0  0  0
  8  7  1  0  0  0  0
  9 14  1  0  0  0  0
 10  9  1  0  0  0  0
 11  5  2  0  0  0  0
 12  7  1  0  0  0  0
 13  3  2  0  0  0  0
 14  8  1  0  0  0  0
 15 10  2  0  0  0  0
 16 12  2  0  0  0  0
 17  9  2  0  0  0  0
 18  1  1  0  0  0  0
 19 15  1  0  0  0  0
 20  4  1  0  0  0  0
 21 19  1  0  0  0  0
 22 10  1  0  0  0  0
 23 22  2  0  0  0  0
 24 16  1  0  0  0  0
 25 23  1  0  0  0  0
 26 21  1  0  0  0  0
  6  5  1  0  0  0  0
 16 11  1  0  0  0  0
 25 19  2  0  0  0  0
M  END
>  <Code> (P1096557)
P1096557

>  <Number of H-Donors> (P1096557)
0

>  <Number of H-Acceptors> (P1096557)
5

>  <Number of Rotatable bonds> (P1096557)
5

>  <CLogP> (P1096557)
4.500000000000000e+000

>  <Number of Rings> (P1096557)
3

>  <PSA> (P1096557)
6.180000000000000e+001

$$$$

  -ISIS-  11102212342D

 31 34  0  0  0  0  0  0  0  0999 V2000
    7.8667    3.7208    0.0000 C   0  0  0  0  0  0  0  0  0  0  0  0
    7.1500    4.9500    0.0000 C   0  0  0  0  0  0  0  0  0  0  0  0
    7.1542    4.1292    0.0000 C   0  0  0  0  0  0  0  0  0  0  0  0
    7.8625    5.3542    0.0000 O   0  0  0  0  0  0  0  0  0  0  0  0
    8.5792    4.9500    0.0000 C   0  0  0  0  0  0  0  0  0  0  0  0
    8.5792    4.1250    0.0000 C   0  0  0  0  0  0  0  0  0  0  0  0
    6.4375    5.3542    0.0000 C   0  0  0  0  0  0  0  0  0  0  0  0
    7.8625    2.8958    0.0000 C   0  0  0  0  0  0  0  0  0  0  0  0
    6.4417    3.7208    0.0000 C   0  0  0  0  0  0  0  0  0  0  0  0
    3.5750    5.3542    0.0000 C   0  0  0  0  0  0  0  0  0  0  0  0
    9.3000    5.3542    0.0000 O   0  0  0  0  0  0  0  0  0  0  0  0
    3.5625    6.1792    0.0000 O   0  0  0  0  0  0  0  0  0  0  0  0
    2.8542    4.9375    0.0000 O   0  0  0  0  0  0  0  0  0  0  0  0
    5.7250    4.9417    0.0000 C   0  0  0  0  0  0  0  0  0  0  0  0
    7.1500    2.4833    0.0000 C   0  0  0  0  0  0  0  0  0  0  0  0
    8.5750    2.4750    0.0000 C   0  0  0  0  0  0  0  0  0  0  0  0
    5.0042    5.3542    0.0000 O   0  0  0  0  0  0  0  0  0  0  0  0
    4.2875    4.9417    0.0000 C   0  0  0  0  0  0  0  0  0  0  0  0
    5.7250    4.1250    0.0000 C   0  0  0  0  0  0  0  0  0  0  0  0
    7.8625    1.2333    0.0000 C   0  0  0  0  0  0  0  0  0  0  0  0
    2.1417    5.3542    0.0000 C   0  0  0  0  0  0  0  0  0  0  0  0
    8.5750    1.6500    0.0000 C   0  0  0  0  0  0  0  0  0  0  0  0
    7.1500    1.6458    0.0000 C   0  0  0  0  0  0  0  0  0  0  0  0
    1.4292    4.9417    0.0000 C   0  0  0  0  0  0  0  0  0  0  0  0
    7.8750    0.4125    0.0000 O   0  0  0  0  0  0  0  0  0  0  0  0
    0.7167    5.3542    0.0000 C   0  0  0  0  0  0  0  0  0  0  0  0
    1.4250    4.1042    0.0000 C   0  0  0  0  0  0  0  0  0  0  0  0
    8.5875   -0.0000    0.0000 C   0  0  0  0  0  0  0  0  0  0  0  0
    0.7167    3.7083    0.0000 C   0  0  0  0  0  0  0  0  0  0  0  0
    0.0000    4.9375    0.0000 C   0  0  0  0  0  0  0  0  0  0  0  0
    0.0000    4.1042    0.0000 C   0  0  0  0  0  0  0  0  0  0  0  0
  2  3  1  0  0  0  0
  3  1  1  0  0  0  0
  4  5  1  0  0  0  0
  5  6  1  0  0  0  0
  6  1  2  0  0  0  0
  7  2  2  0  0  0  0
  8  1  1  0  0  0  0
  9  3  2  0  0  0  0
 10 18  1  0  0  0  0
 11  5  2  0  0  0  0
 12 10  2  0  0  0  0
 13 10  1  0  0  0  0
 14 19  2  0  0  0  0
 15  8  2  0  0  0  0
 16  8  1  0  0  0  0
 17 14  1  0  0  0  0
 18 17  1  0  0  0  0
 19  9  1  0  0  0  0
 20 22  1  0  0  0  0
 21 13  1  0  0  0  0
 22 16  2  0  0  0  0
 23 15  1  0  0  0  0
 24 21  1  0  0  0  0
 25 20  1  0  0  0  0
 26 24  2  0  0  0  0
 27 24  1  0  0  0  0
 28 25  1  0  0  0  0
 29 27  2  0  0  0  0
 30 26  1  0  0  0  0
 31 29  1  0  0  0  0
 20 23  2  0  0  0  0
  4  2  1  0  0  0  0
 14  7  1  0  0  0  0
 31 30  2  0  0  0  0
M  END
>  <Code> (P1095963)
P1095963

>  <Number of H-Donors> (P1095963)
0

>  <Number of H-Acceptors> (P1095963)
6

>  <Number of Rotatable bonds> (P1095963)
8

>  <CLogP> (P1095963)
4.600000000000000e+000

>  <Number of Rings> (P1095963)
4

>  <PSA> (P1095963)
7.109999999999998e+001

$$$$

  -ISIS-  11102212342D

 24 27  0  0  0  0  0  0  0  0999 V2000
    5.1667   -0.6792    0.0000 C   0  0  0  0  0  0  0  0  0  0  0  0
    5.1667    0.1458    0.0000 C   0  0  0  0  0  0  0  0  0  0  0  0
    5.8792   -1.0917    0.0000 C   0  0  0  0  0  0  0  0  0  0  0  0
    3.7417    0.1458    0.0000 C   0  0  0  0  0  0  0  0  0  0  0  0
    4.4542    0.5583    0.0000 C   0  0  0  0  0  0  0  0  0  0  0  0
    3.7417   -0.6792    0.0000 C   0  0  0  0  0  0  0  0  0  0  0  0
    2.9625    0.4000    0.0000 O   0  0  0  0  0  0  0  0  0  0  0  0
    5.8792    0.5583    0.0000 O   0  0  0  0  0  0  0  0  0  0  0  0
    4.4542   -1.0917    0.0000 C   0  0  0  0  0  0  0  0  0  0  0  0
    6.5917    0.1458    0.0000 C   0  0  0  0  0  0  0  0  0  0  0  0
    6.5917   -0.6792    0.0000 C   0  0  0  0  0  0  0  0  0  0  0  0
    2.9625   -0.9292    0.0000 C   0  0  0  0  0  0  0  0  0  0  0  0
    2.4750   -0.2667    0.0000 C   0  0  0  0  0  0  0  0  0  0  0  0
    5.8792   -1.9167    0.0000 C   0  0  0  0  0  0  0  0  0  0  0  0
    7.3167    0.5583    0.0000 O   0  0  0  0  0  0  0  0  0  0  0  0
    5.1625   -2.3292    0.0000 C   0  0  0  0  0  0  0  0  0  0  0  0
    6.5917   -2.3292    0.0000 C   0  0  0  0  0  0  0  0  0  0  0  0
    5.8792   -3.5667    0.0000 C   0  0  0  0  0  0  0  0  0  0  0  0
    4.4542    1.3833    0.0000 C   0  0  0  0  0  0  0  0  0  0  0  0
    5.1625   -3.1625    0.0000 C   0  0  0  0  0  0  0  0  0  0  0  0
    6.5917   -3.1625    0.0000 C   0  0  0  0  0  0  0  0  0  0  0  0
    5.8792   -4.3917    0.0000 O   0  0  0  0  0  0  0  0  0  0  0  0
    2.7417   -1.7250    0.0000 C   0  0  0  0  0  0  0  0  0  0  0  0
    5.1625   -4.8042    0.0000 C   0  0  0  0  0  0  0  0  0  0  0  0
  2  1  1  0  0  0  0
  3  1  1  0  0  0  0
  4  6  2  0  0  0  0
  5  2  2  0  0  0  0
  6  9  1  0  0  0  0
  7  4  1  0  0  0  0
  8  2  1  0  0  0  0
  9  1  2  0  0  0  0
 10 11  1  0  0  0  0
 11  3  2  0  0  0  0
 12  6  1  0  0  0  0
 13 12  2  0  0  0  0
 14  3  1  0  0  0  0
 15 10  2  0  0  0  0
 16 14  2  0  0  0  0
 17 14  1  0  0  0  0
 18 21  1  0  0  0  0
 19  5  1  0  0  0  0
 20 16  1  0  0  0  0
 21 17  2  0  0  0  0
 22 18  1  0  0  0  0
 23 12  1  0  0  0  0
 24 22  1  0  0  0  0
  4  5  1  0  0  0  0
  8 10  1  0  0  0  0
 13  7  1  0  0  0  0
 18 20  2  0  0  0  0
M  END
>  <Code> (P1091222)
P1091222

>  <Number of H-Donors> (P1091222)
0

>  <Number of H-Acceptors> (P1091222)
3

>  <Number of Rotatable bonds> (P1091222)
2

>  <CLogP> (P1091222)
4.600000000000000e+000

>  <Number of Rings> (P1091222)
4

>  <PSA> (P1091222)
4.870000000000000e+001

$$$$

  -ISIS-  11102212342D

 24 24  0  0  0  0  0  0  0  0999 V2000
    5.8125  -10.1917    0.0000 C   0  0  0  0  0  0  0  0  0  0  0  0
    5.1042   -9.7792    0.0000 N   0  0  0  0  0  0  0  0  0  0  0  0
    4.4792  -10.3167    0.0000 C   0  0  0  0  0  0  0  0  0  0  0  0
    6.5750   -9.8667    0.0000 C   0  0  0  0  0  0  0  0  0  0  0  0
    4.8125  -11.0792    0.0000 S   0  0  0  0  0  0  0  0  0  0  0  0
    5.6375  -11.0042    0.0000 C   0  0  0  0  0  0  0  0  0  0  0  0
    3.6917  -10.1042    0.0000 C   0  0  0  0  0  0  0  0  0  0  0  0
    7.2417  -10.3667    0.0000 N   0  0  3  0  0  0  0  0  0  0  0  0
    8.5750  -11.3667    0.0000 N   0  0  3  0  0  0  0  0  0  0  0  0
    6.6750   -9.0417    0.0000 O   0  0  0  0  0  0  0  0  0  0  0  0
    3.1125  -10.6917    0.0000 C   0  0  0  0  0  0  0  0  0  0  0  0
    7.1417  -11.2042    0.0000 C   0  0  0  0  0  0  0  0  0  0  0  0
    8.0042  -10.0417    0.0000 C   0  0  0  0  0  0  0  0  0  0  0  0
    8.6750  -10.5417    0.0000 C   0  0  0  0  0  0  0  0  0  0  0  0
    7.8125  -11.6917    0.0000 C   0  0  0  0  0  0  0  0  0  0  0  0
    3.3250  -11.4792    0.0000 F   0  0  0  0  0  0  0  0  0  0  0  0
    6.1875  -11.6167    0.0000 C   0  0  0  0  0  0  0  0  0  0  0  0
    3.4792   -9.3167    0.0000 C   0  0  0  0  0  0  0  0  0  0  0  0
    5.0625   -7.3042    0.0000 Cl  0  0  0  0  0  0  0  0  0  0  0  0
    5.8125   -7.2417    0.0000 Cl  0  0  0  0  0  0  0  0  0  0  0  0
    9.2375  -11.8667    0.0000 C   0  0  0  0  0  0  0  0  0  0  0  0
    2.3167  -10.4792    0.0000 C   0  0  0  0  0  0  0  0  0  0  0  0
    2.6792   -9.1042    0.0000 C   0  0  0  0  0  0  0  0  0  0  0  0
    2.1125   -9.6792    0.0000 C   0  0  0  0  0  0  0  0  0  0  0  0
  2  1  1  0  0  0  0
  3  2  2  0  0  0  0
  4  1  1  0  0  0  0
  5  6  1  0  0  0  0
  6  1  2  0  0  0  0
  7  3  1  0  0  0  0
  8  4  1  0  0  0  0
  9 14  1  0  0  0  0
 10  4  2  0  0  0  0
 11  7  1  0  0  0  0
 12  8  1  0  0  0  0
 13  8  1  0  0  0  0
 14 13  1  0  0  0  0
 15 12  1  0  0  0  0
 16 11  1  0  0  0  0
 17  6  1  0  0  0  0
 18  7  2  0  0  0  0
 21  9  1  0  0  0  0
 22 11  2  0  0  0  0
 23 18  1  0  0  0  0
 24 23  2  0  0  0  0
  3  5  1  0  0  0  0
 15  9  1  0  0  0  0
 22 24  1  0  0  0  0
M  END
>  <Code> (P1090638)
P1090638

>  <Saltdata> (P1090638)
2 HCl

>  <Number of H-Donors> (P1090638)
0

>  <Number of H-Acceptors> (P1090638)
3

>  <Number of Rotatable bonds> (P1090638)
2

>  <CLogP> (P1090638)
3.100000000000000e+000

>  <Number of Rings> (P1090638)
3

>  <PSA> (P1090638)
6.470000000000000e+001

$$$$

  -ISIS-  11102212342D

 23 26  0  0  0  0  0  0  0  0999 V2000
    8.1625   -4.2292    0.0000 C   0  0  0  0  0  0  0  0  0  0  0  0
    8.1625   -3.4042    0.0000 C   0  0  0  0  0  0  0  0  0  0  0  0
    8.8250   -4.7125    0.0000 C   0  0  0  0  0  0  0  0  0  0  0  0
    7.4917   -4.7125    0.0000 O   0  0  0  0  0  0  0  0  0  0  0  0
    7.4417   -2.9875    0.0000 C   0  0  0  0  0  0  0  0  0  0  0  0
    7.4417   -2.1542    0.0000 C   0  0  0  0  0  0  0  0  0  0  0  0
    8.5667   -5.4917    0.0000 C   0  0  0  0  0  0  0  0  0  0  0  0
    8.8792   -2.9875    0.0000 C   0  0  0  0  0  0  0  0  0  0  0  0
    8.1625   -1.7375    0.0000 O   0  0  0  0  0  0  0  0  0  0  0  0
    7.7417   -5.4917    0.0000 C   0  0  0  0  0  0  0  0  0  0  0  0
    8.8792   -2.1542    0.0000 C   0  0  0  0  0  0  0  0  0  0  0  0
    6.7250   -3.4000    0.0000 C   0  0  0  0  0  0  0  0  0  0  0  0
    6.7250   -1.7417    0.0000 C   0  0  0  0  0  0  0  0  0  0  0  0
    6.0042   -2.9875    0.0000 C   0  0  0  0  0  0  0  0  0  0  0  0
    6.0042   -2.1542    0.0000 C   0  0  0  0  0  0  0  0  0  0  0  0
    9.5917   -1.7417    0.0000 O   0  0  0  0  0  0  0  0  0  0  0  0
    9.6125   -4.4542    0.0000 N   0  0  0  0  0  0  0  0  0  0  0  0
    5.2917   -3.4042    0.0000 Cl  0  0  0  0  0  0  0  0  0  0  0  0
    8.9750   -6.2042    0.0000 C   0  0  0  0  0  0  0  0  0  0  0  0
    7.3292   -6.2042    0.0000 C   0  0  0  0  0  0  0  0  0  0  0  0
    5.2917   -1.7417    0.0000 C   0  0  0  0  0  0  0  0  0  0  0  0
    8.5667   -6.9167    0.0000 C   0  0  0  0  0  0  0  0  0  0  0  0
    7.7417   -6.9167    0.0000 C   0  0  0  0  0  0  0  0  0  0  0  0
  2  1  1  0  0  0  0
  3  1  2  0  0  0  0
  4  1  1  0  0  0  0
  5  2  1  0  0  0  0
  6  5  1  0  0  0  0
  7  3  1  0  0  0  0
  8  2  2  0  0  0  0
  9 11  1  0  0  0  0
 10  4  1  0  0  0  0
 11  8  1  0  0  0  0
 12  5  2  0  0  0  0
 13  6  2  0  0  0  0
 14 12  1  0  0  0  0
 15 14  2  0  0  0  0
 16 11  2  0  0  0  0
 17  3  1  0  0  0  0
 18 14  1  0  0  0  0
 19  7  1  0  0  0  0
 20 10  1  0  0  0  0
 21 15  1  0  0  0  0
 22 19  2  0  0  0  0
 23 20  2  0  0  0  0
  7 10  2  0  0  0  0
 23 22  1  0  0  0  0
  6  9  1  0  0  0  0
 13 15  1  0  0  0  0
M  END
>  <Code> (P1089742)
P1089742

>  <Number of H-Donors> (P1089742)
1

>  <Number of H-Acceptors> (P1089742)
3

>  <Number of Rotatable bonds> (P1089742)
1

>  <CLogP> (P1089742)
4.400000000000000e+000

>  <Number of Rings> (P1089742)
4

>  <PSA> (P1089742)
6.550000000000000e+001

$$$$

  -ISIS-  11102212342D

 15 15  0  0  0  0  0  0  0  0999 V2000
    3.9042    1.7833    0.0000 S   0  0  3  0  0  0  0  0  0  0  0  0
    6.7625    2.6083    0.0000 C   0  0  0  0  0  0  0  0  0  0  0  0
    6.7625    1.7833    0.0000 C   0  0  0  0  0  0  0  0  0  0  0  0
    7.4792    3.0333    0.0000 C   0  0  0  0  0  0  0  0  0  0  0  0
    4.6167    1.3708    0.0000 N   0  0  0  0  0  0  0  0  0  0  0  0
    6.0500    1.3708    0.0000 C   0  0  0  0  0  0  0  0  0  0  0  0
    6.0500    3.0208    0.0000 C   0  0  0  0  0  0  0  0  0  0  0  0
    3.4875    1.0583    0.0000 O   0  0  0  0  0  0  0  0  0  0  0  0
    4.3167    2.5000    0.0000 O   0  0  0  0  0  0  0  0  0  0  0  0
    5.3292    1.7833    0.0000 C   0  0  0  0  0  0  0  0  0  0  0  0
    7.4750    3.8583    0.0000 O   0  0  0  0  0  0  0  0  0  0  0  0
    5.3292    2.6083    0.0000 C   0  0  0  0  0  0  0  0  0  0  0  0
    3.1875    2.1958    0.0000 C   0  0  0  0  0  0  0  0  0  0  0  0
    7.4792    1.3625    0.0000 O   0  0  0  0  0  0  0  0  0  0  0  0
    8.2042    2.6208    0.0000 O   0  0  0  0  0  0  0  0  0  0  0  0
  2  7  1  0  0  0  0
  3  6  1  0  0  0  0
  4  2  1  0  0  0  0
  5  1  1  0  0  0  0
  6 10  2  0  0  0  0
  7 12  2  0  0  0  0
  8  1  2  0  0  0  0
  9  1  2  0  0  0  0
 10  5  1  0  0  0  0
 11  4  2  0  0  0  0
 12 10  1  0  0  0  0
 13  1  1  0  0  0  0
 14  3  1  0  0  0  0
 15  4  1  0  0  0  0
  3  2  2  0  0  0  0
M  END
>  <Code> (P1056833)
P1056833

>  <Number of H-Donors> (P1056833)
3

>  <Number of H-Acceptors> (P1056833)
5

>  <Number of Rotatable bonds> (P1056833)
3

>  <CLogP> (P1056833)
1.000000000000000e-001

>  <Number of Rings> (P1056833)
1

>  <PSA> (P1056833)
1.121000000000000e+002

$$$$

  -ISIS-  11102212342D

 22 24  0  0  0  0  0  0  0  0999 V2000
    5.6125   -5.9250    0.0000 C   0  0  0  0  0  0  0  0  0  0  0  0
    5.3667   -5.1375    0.0000 N   0  0  3  0  0  0  0  0  0  0  0  0
    4.2750   -5.9042    0.0000 N   0  0  0  0  0  0  0  0  0  0  0  0
    4.9375   -6.4000    0.0000 C   0  0  0  0  0  0  0  0  0  0  0  0
    4.5375   -5.1250    0.0000 C   0  0  0  0  0  0  0  0  0  0  0  0
    6.3917   -6.1875    0.0000 C   0  0  0  0  0  0  0  0  0  0  0  0
    5.7875   -4.4167    0.0000 C   0  0  0  0  0  0  0  0  0  0  0  0
    4.9250   -7.2167    0.0000 C   0  0  0  0  0  0  0  0  0  0  0  0
    4.1292   -4.4042    0.0000 C   0  0  0  0  0  0  0  0  0  0  0  0
    7.0125   -5.6417    0.0000 C   0  0  0  0  0  0  0  0  0  0  0  0
    4.2042   -7.6250    0.0000 C   0  0  0  0  0  0  0  0  0  0  0  0
    5.3792   -3.7000    0.0000 C   0  0  0  0  0  0  0  0  0  0  0  0
    4.5500   -3.7000    0.0000 C   0  0  0  0  0  0  0  0  0  0  0  0
    4.1917   -8.4500    0.0000 C   0  0  0  0  0  0  0  0  0  0  0  0
    4.9042   -8.8667    0.0000 C   0  0  0  0  0  0  0  0  0  0  0  0
    5.6292   -7.6417    0.0000 C   0  0  0  0  0  0  0  0  0  0  0  0
    6.8500   -4.8375    0.0000 O   0  0  0  0  0  0  0  0  0  0  0  0
    5.6250   -8.4625    0.0000 C   0  0  0  0  0  0  0  0  0  0  0  0
    4.9000   -9.6917    0.0000 F   0  0  0  0  0  0  0  0  0  0  0  0
    7.7917   -5.9042    0.0000 O   0  0  0  0  0  0  0  0  0  0  0  0
    3.4750   -8.8542    0.0000 C   0  0  0  0  0  0  0  0  0  0  0  0
    5.7917   -2.9875    0.0000 C   0  0  0  0  0  0  0  0  0  0  0  0
  2  1  1  0  0  0  0
  3  4  1  0  0  0  0
  4  1  2  0  0  0  0
  5  2  1  0  0  0  0
  6  1  1  0  0  0  0
  7  2  1  0  0  0  0
  8  4  1  0  0  0  0
  9  5  1  0  0  0  0
 10  6  1  0  0  0  0
 11  8  2  0  0  0  0
 12  7  2  0  0  0  0
 13 12  1  0  0  0  0
 14 11  1  0  0  0  0
 15 18  1  0  0  0  0
 16  8  1  0  0  0  0
 17 10  2  0  0  0  0
 18 16  2  0  0  0  0
 19 15  1  0  0  0  0
 20 10  1  0  0  0  0
 21 14  1  0  0  0  0
 22 12  1  0  0  0  0
  3  5  2  0  0  0  0
 13  9  2  0  0  0  0
 15 14  2  0  0  0  0
M  END
>  <Code> (P1037984)
P1037984

>  <Number of H-Donors> (P1037984)
1

>  <Number of H-Acceptors> (P1037984)
3

>  <Number of Rotatable bonds> (P1037984)
3

>  <CLogP> (P1037984)
3.800000000000000e+000

>  <Number of Rings> (P1037984)
3

>  <PSA> (P1037984)
5.460000000000000e+001

$$$$

  -ISIS-  11102212342D

 20 22  0  0  0  0  0  0  0  0999 V2000
    5.6125   -5.5667    0.0000 C   0  0  0  0  0  0  0  0  0  0  0  0
    4.2750   -5.5417    0.0000 N   0  0  0  0  0  0  0  0  0  0  0  0
    5.3667   -4.7792    0.0000 N   0  0  3  0  0  0  0  0  0  0  0  0
    4.9375   -6.0417    0.0000 C   0  0  0  0  0  0  0  0  0  0  0  0
    4.5375   -4.7667    0.0000 C   0  0  0  0  0  0  0  0  0  0  0  0
    6.3917   -5.8292    0.0000 C   0  0  0  0  0  0  0  0  0  0  0  0
    7.0125   -5.2792    0.0000 C   0  0  0  0  0  0  0  0  0  0  0  0
    4.9250   -6.8625    0.0000 C   0  0  0  0  0  0  0  0  0  0  0  0
    5.7875   -4.0542    0.0000 C   0  0  0  0  0  0  0  0  0  0  0  0
    4.1292   -4.0417    0.0000 C   0  0  0  0  0  0  0  0  0  0  0  0
    5.3792   -3.3417    0.0000 C   0  0  0  0  0  0  0  0  0  0  0  0
    4.5500   -3.3417    0.0000 C   0  0  0  0  0  0  0  0  0  0  0  0
    6.8500   -4.4792    0.0000 O   0  0  0  0  0  0  0  0  0  0  0  0
    4.2042   -7.2667    0.0000 C   0  0  0  0  0  0  0  0  0  0  0  0
    5.6292   -7.2792    0.0000 C   0  0  0  0  0  0  0  0  0  0  0  0
    4.9042   -8.5125    0.0000 C   0  0  0  0  0  0  0  0  0  0  0  0
    7.7917   -5.5417    0.0000 O   0  0  0  0  0  0  0  0  0  0  0  0
    4.1917   -8.0917    0.0000 C   0  0  0  0  0  0  0  0  0  0  0  0
    5.6250   -8.1042    0.0000 C   0  0  0  0  0  0  0  0  0  0  0  0
    4.9000   -9.3375    0.0000 Cl  0  0  0  0  0  0  0  0  0  0  0  0
  2  4  1  0  0  0  0
  3  1  1  0  0  0  0
  4  1  2  0  0  0  0
  5  3  1  0  0  0  0
  6  1  1  0  0  0  0
  7  6  1  0  0  0  0
  8  4  1  0  0  0  0
  9  3  1  0  0  0  0
 10  5  1  0  0  0  0
 11  9  2  0  0  0  0
 12 11  1  0  0  0  0
 13  7  2  0  0  0  0
 14  8  2  0  0  0  0
 15  8  1  0  0  0  0
 16 19  1  0  0  0  0
 17  7  1  0  0  0  0
 18 14  1  0  0  0  0
 19 15  2  0  0  0  0
 20 16  1  0  0  0  0
  5  2  2  0  0  0  0
 18 16  2  0  0  0  0
 10 12  2  0  0  0  0
M  END
>  <Code> (P1037971)
P1037971

>  <Number of H-Donors> (P1037971)
1

>  <Number of H-Acceptors> (P1037971)
3

>  <Number of Rotatable bonds> (P1037971)
3

>  <CLogP> (P1037971)
3.300000000000000e+000

>  <Number of Rings> (P1037971)
3

>  <PSA> (P1037971)
5.460000000000000e+001

$$$$

  -ISIS-  11102212342D

 22 24  0  0  0  0  0  0  0  0999 V2000
    5.6042   -5.9250    0.0000 C   0  0  0  0  0  0  0  0  0  0  0  0
    5.3625   -5.1375    0.0000 N   0  0  3  0  0  0  0  0  0  0  0  0
    4.5292   -5.1292    0.0000 C   0  0  0  0  0  0  0  0  0  0  0  0
    4.2667   -5.9042    0.0000 N   0  0  0  0  0  0  0  0  0  0  0  0
    4.9292   -6.4042    0.0000 C   0  0  0  0  0  0  0  0  0  0  0  0
    5.7792   -4.4167    0.0000 C   0  0  0  0  0  0  0  0  0  0  0  0
    6.3875   -6.1917    0.0000 C   0  0  0  0  0  0  0  0  0  0  0  0
    4.9167   -7.2167    0.0000 C   0  0  0  0  0  0  0  0  0  0  0  0
    4.1292   -4.4042    0.0000 C   0  0  0  0  0  0  0  0  0  0  0  0
    5.3750   -3.7042    0.0000 C   0  0  0  0  0  0  0  0  0  0  0  0
    7.0042   -5.6417    0.0000 C   0  0  0  0  0  0  0  0  0  0  0  0
    4.2000   -7.6250    0.0000 C   0  0  0  0  0  0  0  0  0  0  0  0
    4.5417   -3.7000    0.0000 C   0  0  0  0  0  0  0  0  0  0  0  0
    4.1917   -8.4542    0.0000 C   0  0  0  0  0  0  0  0  0  0  0  0
    5.6292   -7.6417    0.0000 C   0  0  0  0  0  0  0  0  0  0  0  0
    4.9000   -8.8750    0.0000 C   0  0  0  0  0  0  0  0  0  0  0  0
    6.8417   -4.8375    0.0000 O   0  0  0  0  0  0  0  0  0  0  0  0
    5.6167   -8.4625    0.0000 C   0  0  0  0  0  0  0  0  0  0  0  0
    7.7875   -5.9042    0.0000 O   0  0  0  0  0  0  0  0  0  0  0  0
    3.4667   -8.8542    0.0000 C   0  0  0  0  0  0  0  0  0  0  0  0
    4.1375   -2.9792    0.0000 C   0  0  0  0  0  0  0  0  0  0  0  0
    4.8917   -9.7000    0.0000 C   0  0  0  0  0  0  0  0  0  0  0  0
  2  1  1  0  0  0  0
  3  2  1  0  0  0  0
  4  5  1  0  0  0  0
  5  1  2  0  0  0  0
  6  2  1  0  0  0  0
  7  1  1  0  0  0  0
  8  5  1  0  0  0  0
  9  3  1  0  0  0  0
 10  6  2  0  0  0  0
 11  7  1  0  0  0  0
 12  8  2  0  0  0  0
 13 10  1  0  0  0  0
 14 12  1  0  0  0  0
 15  8  1  0  0  0  0
 16 18  1  0  0  0  0
 17 11  2  0  0  0  0
 18 15  2  0  0  0  0
 19 11  1  0  0  0  0
 20 14  1  0  0  0  0
 21 13  1  0  0  0  0
 22 16  1  0  0  0  0
  3  4  2  0  0  0  0
  9 13  2  0  0  0  0
 16 14  2  0  0  0  0
M  END
>  <Code> (P1037943)
P1037943

>  <Number of H-Donors> (P1037943)
1

>  <Number of H-Acceptors> (P1037943)
3

>  <Number of Rotatable bonds> (P1037943)
3

>  <CLogP> (P1037943)
4.100000000000000e+000

>  <Number of Rings> (P1037943)
3

>  <PSA> (P1037943)
5.460000000000000e+001

$$$$

  -ISIS-  11102212342D

 22 24  0  0  0  0  0  0  0  0999 V2000
    6.0167   -5.5667    0.0000 C   0  0  0  0  0  0  0  0  0  0  0  0
    5.7750   -4.7792    0.0000 N   0  0  3  0  0  0  0  0  0  0  0  0
    4.9417   -4.7667    0.0000 C   0  0  0  0  0  0  0  0  0  0  0  0
    4.6792   -5.5500    0.0000 N   0  0  0  0  0  0  0  0  0  0  0  0
    5.3417   -6.0417    0.0000 C   0  0  0  0  0  0  0  0  0  0  0  0
    6.8000   -5.8292    0.0000 C   0  0  0  0  0  0  0  0  0  0  0  0
    5.3292   -6.8625    0.0000 C   0  0  0  0  0  0  0  0  0  0  0  0
    4.5417   -4.0500    0.0000 C   0  0  0  0  0  0  0  0  0  0  0  0
    6.1917   -4.0625    0.0000 C   0  0  0  0  0  0  0  0  0  0  0  0
    7.4167   -5.2875    0.0000 C   0  0  0  0  0  0  0  0  0  0  0  0
    4.6125   -7.2667    0.0000 C   0  0  0  0  0  0  0  0  0  0  0  0
    4.6042   -8.0917    0.0000 C   0  0  0  0  0  0  0  0  0  0  0  0
    5.7875   -3.3417    0.0000 C   0  0  0  0  0  0  0  0  0  0  0  0
    4.9542   -3.3417    0.0000 C   0  0  0  0  0  0  0  0  0  0  0  0
    6.0417   -7.2792    0.0000 C   0  0  0  0  0  0  0  0  0  0  0  0
    5.3125   -8.5125    0.0000 C   0  0  0  0  0  0  0  0  0  0  0  0
    7.2542   -4.4792    0.0000 O   0  0  0  0  0  0  0  0  0  0  0  0
    6.0292   -8.1042    0.0000 C   0  0  0  0  0  0  0  0  0  0  0  0
    8.2000   -5.5500    0.0000 O   0  0  0  0  0  0  0  0  0  0  0  0
    3.7167   -4.0417    0.0000 C   0  0  0  0  0  0  0  0  0  0  0  0
    3.8792   -8.4917    0.0000 C   0  0  0  0  0  0  0  0  0  0  0  0
    5.3042   -9.3375    0.0000 C   0  0  0  0  0  0  0  0  0  0  0  0
  2  1  1  0  0  0  0
  3  2  1  0  0  0  0
  4  5  1  0  0  0  0
  5  1  2  0  0  0  0
  6  1  1  0  0  0  0
  7  5  1  0  0  0  0
  8  3  1  0  0  0  0
  9  2  1  0  0  0  0
 10  6  1  0  0  0  0
 11  7  2  0  0  0  0
 12 11  1  0  0  0  0
 13  9  2  0  0  0  0
 14 13  1  0  0  0  0
 15  7  1  0  0  0  0
 16 18  1  0  0  0  0
 17 10  2  0  0  0  0
 18 15  2  0  0  0  0
 19 10  1  0  0  0  0
 20  8  1  0  0  0  0
 21 12  1  0  0  0  0
 22 16  1  0  0  0  0
  3  4  2  0  0  0  0
 14  8  2  0  0  0  0
 16 12  2  0  0  0  0
M  END
>  <Code> (P1037942)
P1037942

>  <Number of H-Donors> (P1037942)
1

>  <Number of H-Acceptors> (P1037942)
3

>  <Number of Rotatable bonds> (P1037942)
3

>  <CLogP> (P1037942)
4.100000000000000e+000

>  <Number of Rings> (P1037942)
3

>  <PSA> (P1037942)
5.460000000000000e+001

$$$$

  -ISIS-  11102212342D

 26 28  0  0  0  0  0  0  0  0999 V2000
    3.3042   -2.2292    0.0000 C   0  0  0  0  0  0  0  0  0  0  0  0
    3.7167   -2.9542    0.0000 C   0  0  0  0  0  0  0  0  0  0  0  0
    2.4917   -2.4167    0.0000 C   0  0  0  0  0  0  0  0  0  0  0  0
    2.4167   -3.2417    0.0000 C   0  0  0  0  0  0  0  0  0  0  0  0
    3.1792   -3.5667    0.0000 S   0  0  0  0  0  0  0  0  0  0  0  0
    3.7042   -1.5167    0.0000 C   0  0  0  0  0  0  0  0  0  0  0  0
    4.5542   -2.9417    0.0000 N   0  0  0  0  0  0  0  0  0  0  0  0
    4.5417   -1.5042    0.0000 N   0  0  3  0  0  0  0  0  0  0  0  0
    4.9542   -2.2167    0.0000 C   0  0  0  0  0  0  0  0  0  0  0  0
    1.6667   -3.5917    0.0000 C   0  0  0  0  0  0  0  0  0  0  0  0
    3.2792   -0.8042    0.0000 O   0  0  0  0  0  0  0  0  0  0  0  0
    1.5917   -4.4167    0.0000 O   0  0  0  0  0  0  0  0  0  0  0  0
    0.9417   -3.1917    0.0000 N   0  0  0  0  0  0  0  0  0  0  0  0
    1.8167   -1.9417    0.0000 C   0  0  0  0  0  0  0  0  0  0  0  0
    4.9500   -0.7750    0.0000 C   0  0  0  0  0  0  0  0  0  0  0  0
    7.0292    2.8583    0.0000 C   0  0  0  0  0  0  0  0  0  0  0  0
    6.1917    1.4083    0.0000 C   0  0  0  0  0  0  0  0  0  0  0  0
    7.4500    2.1333    0.0000 C   0  0  0  0  0  0  0  0  0  0  0  0
    7.0292    1.4083    0.0000 C   0  0  0  0  0  0  0  0  0  0  0  0
    6.1875    2.8500    0.0000 C   0  0  0  0  0  0  0  0  0  0  0  0
    5.7750    2.1250    0.0000 C   0  0  0  0  0  0  0  0  0  0  0  0
    4.5250   -0.0500    0.0000 C   0  0  0  0  0  0  0  0  0  0  0  0
    5.7792    0.6833    0.0000 O   0  0  0  0  0  0  0  0  0  0  0  0
    7.4417    3.5833    0.0000 O   0  0  0  0  0  0  0  0  0  0  0  0
    4.9417    0.6833    0.0000 C   0  0  0  0  0  0  0  0  0  0  0  0
    8.2792    3.5833    0.0000 C   0  0  0  0  0  0  0  0  0  0  0  0
  2  1  2  0  0  0  0
  3  1  1  0  0  0  0
  4  3  2  0  0  0  0
  5  2  1  0  0  0  0
  6  1  1  0  0  0  0
  7  2  1  0  0  0  0
  8  6  1  0  0  0  0
  9  8  1  0  0  0  0
 10  4  1  0  0  0  0
 11  6  2  0  0  0  0
 12 10  2  0  0  0  0
 13 10  1  0  0  0  0
 14  3  1  0  0  0  0
 15  8  1  0  0  0  0
 16 20  1  0  0  0  0
 17 23  1  0  0  0  0
 18 19  1  0  0  0  0
 19 17  2  0  0  0  0
 20 21  2  0  0  0  0
 21 17  1  0  0  0  0
 22 15  1  0  0  0  0
 23 25  1  0  0  0  0
 24 16  1  0  0  0  0
 25 22  1  0  0  0  0
 26 24  1  0  0  0  0
  5  4  1  0  0  0  0
  9  7  2  0  0  0  0
 16 18  2  0  0  0  0
M  END
>  <Code> (P1033411)
P1033411

>  <Number of H-Donors> (P1033411)
1

>  <Number of H-Acceptors> (P1033411)
5

>  <Number of Rotatable bonds> (P1033411)
7

>  <CLogP> (P1033411)
2.200000000000000e+000

>  <Number of Rings> (P1033411)
3

>  <PSA> (P1033411)
1.225000000000000e+002

$$$$

  -ISIS-  11102212342D

 23 26  0  0  0  0  0  0  0  0999 V2000
    1.3667   -3.5667    0.0000 C   0  0  0  0  0  0  0  0  0  0  0  0
    1.4000   -2.7417    0.0000 C   0  0  0  0  0  0  0  0  0  0  0  0
    0.5750   -3.7917    0.0000 S   0  0  0  0  0  0  0  0  0  0  0  0
    0.6250   -2.4542    0.0000 C   0  0  0  0  0  0  0  0  0  0  0  0
    0.1125   -3.1042    0.0000 C   0  0  0  0  0  0  0  0  0  0  0  0
    5.0167   -1.4292    0.0000 N   0  0  0  0  0  0  0  0  0  0  0  0
    4.2667   -1.0917    0.0000 C   0  0  0  0  0  0  0  0  0  0  0  0
    4.3625   -0.2792    0.0000 N   0  0  0  0  0  0  0  0  0  0  0  0
    2.1292   -2.3417    0.0000 C   0  0  0  0  0  0  0  0  0  0  0  0
    2.0667   -4.0042    0.0000 N   0  0  0  0  0  0  0  0  0  0  0  0
    2.8375   -2.7917    0.0000 N   0  0  0  0  0  0  0  0  0  0  0  0
    5.5667   -0.8167    0.0000 C   0  0  0  0  0  0  0  0  0  0  0  0
    5.1542   -0.0917    0.0000 C   0  0  0  0  0  0  0  0  0  0  0  0
    2.8125   -3.6292    0.0000 C   0  0  0  0  0  0  0  0  0  0  0  0
    3.5542   -1.5125    0.0000 C   0  0  0  0  0  0  0  0  0  0  0  0
    2.1292   -1.5167    0.0000 N   0  0  0  0  0  0  0  0  0  0  0  0
    2.8375   -1.1000    0.0000 C   0  0  0  0  0  0  0  0  0  0  0  0
    0.4000   -1.6542    0.0000 C   0  0  0  0  0  0  0  0  0  0  0  0
   -0.7125   -3.0750    0.0000 C   0  0  0  0  0  0  0  0  0  0  0  0
    6.4042   -0.8167    0.0000 C   0  0  0  0  0  0  0  0  0  0  0  0
    5.5667    0.6125    0.0000 C   0  0  0  0  0  0  0  0  0  0  0  0
    6.3917    0.6208    0.0000 C   0  0  0  0  0  0  0  0  0  0  0  0
    6.8042   -0.0917    0.0000 C   0  0  0  0  0  0  0  0  0  0  0  0
  2  1  2  0  0  0  0
  3  1  1  0  0  0  0
  4  2  1  0  0  0  0
  5  3  1  0  0  0  0
  6  7  2  0  0  0  0
  7 15  1  0  0  0  0
  8  7  1  0  0  0  0
  9  2  1  0  0  0  0
 10  1  1  0  0  0  0
 11 14  1  0  0  0  0
 12  6  1  0  0  0  0
 13  8  1  0  0  0  0
 14 10  2  0  0  0  0
 15 17  1  0  0  0  0
 16  9  1  0  0  0  0
 17 16  1  0  0  0  0
 18  4  1  0  0  0  0
 19  5  1  0  0  0  0
 20 12  1  0  0  0  0
 21 13  1  0  0  0  0
 22 21  2  0  0  0  0
 23 20  2  0  0  0  0
  4  5  2  0  0  0  0
  9 11  2  0  0  0  0
 13 12  2  0  0  0  0
 22 23  1  0  0  0  0
M  END
>  <Code> (P1033294)
P1033294

>  <Number of H-Donors> (P1033294)
2

>  <Number of H-Acceptors> (P1033294)
4

>  <Number of Rotatable bonds> (P1033294)
4

>  <CLogP> (P1033294)
3.200000000000000e+000

>  <Number of Rings> (P1033294)
4

>  <PSA> (P1033294)
9.470000000000000e+001

$$$$

  -ISIS-  11102212342D

 25 28  0  0  0  0  0  0  0  0999 V2000
    6.4417   -5.2375    0.0000 C   0  0  0  0  0  0  0  0  0  0  0  0
    5.1667   -4.7917    0.0000 N   0  0  0  0  0  0  0  0  0  0  0  0
    7.2667   -5.2542    0.0000 C   0  0  0  0  0  0  0  0  0  0  0  0
    7.7375   -5.9292    0.0000 N   0  0  0  0  0  0  0  0  0  0  0  0
    5.1542   -5.6292    0.0000 N   0  0  3  0  0  0  0  0  0  0  0  0
    5.9667   -4.5542    0.0000 N   0  0  0  0  0  0  0  0  0  0  0  0
    5.9417   -5.8917    0.0000 C   0  0  0  0  0  0  0  0  0  0  0  0
    8.5292   -5.6917    0.0000 C   0  0  0  0  0  0  0  0  0  0  0  0
    8.5500   -4.8667    0.0000 N   0  0  0  0  0  0  0  0  0  0  0  0
    7.7667   -4.5917    0.0000 O   0  0  0  0  0  0  0  0  0  0  0  0
    9.1917   -6.1917    0.0000 C   0  0  0  0  0  0  0  0  0  0  0  0
    4.4750   -6.1000    0.0000 C   0  0  0  0  0  0  0  0  0  0  0  0
    9.9542   -5.8750    0.0000 C   0  0  0  0  0  0  0  0  0  0  0  0
    4.5500   -6.9167    0.0000 C   0  0  0  0  0  0  0  0  0  0  0  0
    3.7250   -5.7417    0.0000 C   0  0  0  0  0  0  0  0  0  0  0  0
    6.1792   -6.6917    0.0000 C   0  0  0  0  0  0  0  0  0  0  0  0
    3.1167   -7.0417    0.0000 C   0  0  0  0  0  0  0  0  0  0  0  0
   10.0542   -5.0542    0.0000 F   0  0  0  0  0  0  0  0  0  0  0  0
    3.8667   -7.3917    0.0000 C   0  0  0  0  0  0  0  0  0  0  0  0
    3.0417   -6.2167    0.0000 C   0  0  0  0  0  0  0  0  0  0  0  0
    2.4375   -7.5042    0.0000 Br  0  0  0  0  0  0  0  0  0  0  0  0
    9.0875   -7.0167    0.0000 C   0  0  0  0  0  0  0  0  0  0  0  0
   10.6167   -6.3667    0.0000 C   0  0  0  0  0  0  0  0  0  0  0  0
    9.7417   -7.5167    0.0000 C   0  0  0  0  0  0  0  0  0  0  0  0
   10.5042   -7.1917    0.0000 C   0  0  0  0  0  0  0  0  0  0  0  0
  2  6  2  0  0  0  0
  3  1  1  0  0  0  0
  4  3  2  0  0  0  0
  5  7  1  0  0  0  0
  6  1  1  0  0  0  0
  7  1  2  0  0  0  0
  8  4  1  0  0  0  0
  9 10  1  0  0  0  0
 10  3  1  0  0  0  0
 11  8  1  0  0  0  0
 12  5  1  0  0  0  0
 13 11  1  0  0  0  0
 14 12  1  0  0  0  0
 15 12  2  0  0  0  0
 16  7  1  0  0  0  0
 17 20  2  0  0  0  0
 18 13  1  0  0  0  0
 19 14  2  0  0  0  0
 20 15  1  0  0  0  0
 21 17  1  0  0  0  0
 22 11  2  0  0  0  0
 23 13  2  0  0  0  0
 24 22  1  0  0  0  0
 25 24  2  0  0  0  0
  2  5  1  0  0  0  0
  8  9  2  0  0  0  0
 17 19  1  0  0  0  0
 25 23  1  0  0  0  0
M  END
>  <Code> (P1032348)
P1032348

>  <Number of H-Donors> (P1032348)
0

>  <Number of H-Acceptors> (P1032348)
4

>  <Number of Rotatable bonds> (P1032348)
3

>  <CLogP> (P1032348)
4.400000000000000e+000

>  <Number of Rings> (P1032348)
4

>  <PSA> (P1032348)
6.959999999999999e+001

$$$$

  -ISIS-  11102212342D

 26 29  0  0  0  0  0  0  0  0999 V2000
    6.0292   -4.8792    0.0000 C   0  0  0  0  0  0  0  0  0  0  0  0
    4.7500   -5.2667    0.0000 N   0  0  3  0  0  0  0  0  0  0  0  0
    4.7625   -4.4375    0.0000 N   0  0  0  0  0  0  0  0  0  0  0  0
    6.8625   -4.8917    0.0000 C   0  0  0  0  0  0  0  0  0  0  0  0
    5.5292   -5.5375    0.0000 C   0  0  0  0  0  0  0  0  0  0  0  0
    7.3292   -5.5750    0.0000 N   0  0  0  0  0  0  0  0  0  0  0  0
    5.5542   -4.1917    0.0000 N   0  0  0  0  0  0  0  0  0  0  0  0
    8.1250   -5.3375    0.0000 C   0  0  0  0  0  0  0  0  0  0  0  0
    4.0667   -5.7417    0.0000 C   0  0  0  0  0  0  0  0  0  0  0  0
    8.1417   -4.5042    0.0000 N   0  0  0  0  0  0  0  0  0  0  0  0
    7.3542   -4.2292    0.0000 O   0  0  0  0  0  0  0  0  0  0  0  0
    8.7792   -5.8292    0.0000 C   0  0  0  0  0  0  0  0  0  0  0  0
    4.1417   -6.5542    0.0000 C   0  0  0  0  0  0  0  0  0  0  0  0
    3.3167   -5.3875    0.0000 C   0  0  0  0  0  0  0  0  0  0  0  0
    9.5417   -5.5167    0.0000 C   0  0  0  0  0  0  0  0  0  0  0  0
    2.6375   -5.8542    0.0000 C   0  0  0  0  0  0  0  0  0  0  0  0
    3.4625   -7.0375    0.0000 C   0  0  0  0  0  0  0  0  0  0  0  0
    5.7667   -6.3292    0.0000 C   0  0  0  0  0  0  0  0  0  0  0  0
    3.2542   -4.5625    0.0000 F   0  0  0  0  0  0  0  0  0  0  0  0
    2.7042   -6.6792    0.0000 C   0  0  0  0  0  0  0  0  0  0  0  0
    3.5292   -7.8625    0.0000 F   0  0  0  0  0  0  0  0  0  0  0  0
    8.6792   -6.6542    0.0000 C   0  0  0  0  0  0  0  0  0  0  0  0
    9.6417   -4.6917    0.0000 C   0  0  0  0  0  0  0  0  0  0  0  0
   10.2042   -6.0125    0.0000 C   0  0  0  0  0  0  0  0  0  0  0  0
    9.3375   -7.1625    0.0000 C   0  0  0  0  0  0  0  0  0  0  0  0
   10.1000   -6.8375    0.0000 C   0  0  0  0  0  0  0  0  0  0  0  0
  2  5  1  0  0  0  0
  3  7  2  0  0  0  0
  4  1  1  0  0  0  0
  5  1  2  0  0  0  0
  6  4  2  0  0  0  0
  7  1  1  0  0  0  0
  8  6  1  0  0  0  0
  9  2  1  0  0  0  0
 10 11  1  0  0  0  0
 11  4  1  0  0  0  0
 12  8  1  0  0  0  0
 13  9  1  0  0  0  0
 14  9  2  0  0  0  0
 15 12  1  0  0  0  0
 16 14  1  0  0  0  0
 17 13  2  0  0  0  0
 18  5  1  0  0  0  0
 19 14  1  0  0  0  0
 20 16  2  0  0  0  0
 21 17  1  0  0  0  0
 22 12  2  0  0  0  0
 23 15  1  0  0  0  0
 24 15  2  0  0  0  0
 25 22  1  0  0  0  0
 26 25  2  0  0  0  0
  3  2  1  0  0  0  0
  8 10  2  0  0  0  0
 17 20  1  0  0  0  0
 24 26  1  0  0  0  0
M  END
>  <Code> (P1032341)
P1032341

>  <Number of H-Donors> (P1032341)
0

>  <Number of H-Acceptors> (P1032341)
4

>  <Number of Rotatable bonds> (P1032341)
3

>  <CLogP> (P1032341)
4.400000000000000e+000

>  <Number of Rings> (P1032341)
4

>  <PSA> (P1032341)
6.959999999999999e+001

$$$$

  -ISIS-  11102212342D

 26 29  0  0  0  0  0  0  0  0999 V2000
    6.5000   -5.2292    0.0000 C   0  0  0  0  0  0  0  0  0  0  0  0
    5.2292   -4.7917    0.0000 N   0  0  0  0  0  0  0  0  0  0  0  0
    7.3292   -5.2500    0.0000 C   0  0  0  0  0  0  0  0  0  0  0  0
    5.2167   -5.6250    0.0000 N   0  0  3  0  0  0  0  0  0  0  0  0
    7.7917   -5.9292    0.0000 N   0  0  0  0  0  0  0  0  0  0  0  0
    6.0250   -4.5500    0.0000 N   0  0  0  0  0  0  0  0  0  0  0  0
    6.0000   -5.8917    0.0000 C   0  0  0  0  0  0  0  0  0  0  0  0
    8.5917   -5.6917    0.0000 C   0  0  0  0  0  0  0  0  0  0  0  0
    8.6042   -4.8625    0.0000 N   0  0  0  0  0  0  0  0  0  0  0  0
    7.8250   -4.5875    0.0000 O   0  0  0  0  0  0  0  0  0  0  0  0
    9.2500   -6.1875    0.0000 C   0  0  0  0  0  0  0  0  0  0  0  0
    4.5292   -6.0917    0.0000 C   0  0  0  0  0  0  0  0  0  0  0  0
    3.7792   -5.7375    0.0000 C   0  0  0  0  0  0  0  0  0  0  0  0
    3.1042   -6.2125    0.0000 C   0  0  0  0  0  0  0  0  0  0  0  0
   10.0125   -5.8667    0.0000 C   0  0  0  0  0  0  0  0  0  0  0  0
    3.1750   -7.0375    0.0000 C   0  0  0  0  0  0  0  0  0  0  0  0
    4.6042   -6.9125    0.0000 C   0  0  0  0  0  0  0  0  0  0  0  0
    3.9292   -7.3917    0.0000 C   0  0  0  0  0  0  0  0  0  0  0  0
    6.2375   -6.6875    0.0000 C   0  0  0  0  0  0  0  0  0  0  0  0
    2.3542   -5.8542    0.0000 Cl  0  0  0  0  0  0  0  0  0  0  0  0
   10.1167   -5.0500    0.0000 F   0  0  0  0  0  0  0  0  0  0  0  0
    2.4917   -7.5042    0.0000 F   0  0  0  0  0  0  0  0  0  0  0  0
    9.1417   -7.0125    0.0000 C   0  0  0  0  0  0  0  0  0  0  0  0
   10.6750   -6.3667    0.0000 C   0  0  0  0  0  0  0  0  0  0  0  0
    9.8042   -7.5167    0.0000 C   0  0  0  0  0  0  0  0  0  0  0  0
   10.5667   -7.1917    0.0000 C   0  0  0  0  0  0  0  0  0  0  0  0
  2  6  2  0  0  0  0
  3  1  1  0  0  0  0
  4  7  1  0  0  0  0
  5  3  2  0  0  0  0
  6  1  1  0  0  0  0
  7  1  2  0  0  0  0
  8  5  1  0  0  0  0
  9 10  1  0  0  0  0
 10  3  1  0  0  0  0
 11  8  1  0  0  0  0
 12  4  1  0  0  0  0
 13 12  2  0  0  0  0
 14 13  1  0  0  0  0
 15 11  1  0  0  0  0
 16 18  1  0  0  0  0
 17 12  1  0  0  0  0
 18 17  2  0  0  0  0
 19  7  1  0  0  0  0
 20 14  1  0  0  0  0
 21 15  1  0  0  0  0
 22 16  1  0  0  0  0
 23 11  2  0  0  0  0
 24 15  2  0  0  0  0
 25 23  1  0  0  0  0
 26 25  2  0  0  0  0
  2  4  1  0  0  0  0
  8  9  2  0  0  0  0
 14 16  2  0  0  0  0
 24 26  1  0  0  0  0
M  END
>  <Code> (P1030196)
P1030196

>  <Number of H-Donors> (P1030196)
0

>  <Number of H-Acceptors> (P1030196)
4

>  <Number of Rotatable bonds> (P1030196)
3

>  <CLogP> (P1030196)
4.600000000000000e+000

>  <Number of Rings> (P1030196)
4

>  <PSA> (P1030196)
6.959999999999999e+001

$$$$

  -ISIS-  11102212342D

 14 15  0  0  0  0  0  0  0  0999 V2000
    5.1667   -1.2625    0.0000 C   0  0  0  0  0  0  0  0  0  0  0  0
    4.5000   -0.7750    0.0000 N   0  0  0  0  0  0  0  0  0  0  0  0
    4.0917   -2.0417    0.0000 N   0  0  3  0  0  0  0  0  0  0  0  0
    3.8292   -1.2625    0.0000 C   0  0  0  0  0  0  0  0  0  0  0  0
    4.9125   -2.0417    0.0000 C   0  0  0  0  0  0  0  0  0  0  0  0
    5.9542   -1.0042    0.0000 C   0  0  0  0  0  0  0  0  0  0  0  0
    6.1292   -0.2000    0.0000 O   0  0  0  0  0  0  0  0  0  0  0  0
    6.5667   -1.5542    0.0000 O   0  0  0  0  0  0  0  0  0  0  0  0
    3.5500   -2.6625    0.0000 C   0  0  0  0  0  0  0  0  0  0  0  0
    3.0292   -1.0917    0.0000 C   0  0  0  0  0  0  0  0  0  0  0  0
    7.2750   -1.1417    0.0000 C   0  0  0  0  0  0  0  0  0  0  0  0
    2.7375   -2.4917    0.0000 C   0  0  0  0  0  0  0  0  0  0  0  0
    2.4792   -1.7125    0.0000 C   0  0  0  0  0  0  0  0  0  0  0  0
    7.9875   -1.5542    0.0000 C   0  0  0  0  0  0  0  0  0  0  0  0
  2  1  1  0  0  0  0
  3  5  1  0  0  0  0
  4  2  2  0  0  0  0
  5  1  2  0  0  0  0
  6  1  1  0  0  0  0
  7  6  2  0  0  0  0
  8  6  1  0  0  0  0
  9  3  1  0  0  0  0
 10  4  1  0  0  0  0
 11  8  1  0  0  0  0
 12  9  1  0  0  0  0
 13 10  1  0  0  0  0
 14 11  1  0  0  0  0
  3  4  1  0  0  0  0
 13 12  1  0  0  0  0
M  END
>  <Code> (P10184633)
P10184633

>  <Number of H-Donors> (P10184633)
0

>  <Number of H-Acceptors> (P10184633)
3

>  <Number of Rotatable bonds> (P10184633)
3

>  <CLogP> (P10184633)
1.500000000000000e+000

>  <Number of Rings> (P10184633)
2

>  <PSA> (P10184633)
4.410000000000000e+001

$$$$

  -ISIS-  11102212342D

 31 35  0  0  0  0  0  0  0  0999 V2000
    1.7917   -2.1375    0.0000 C   0  0  0  0  0  0  0  0  0  0  0  0
    1.8000   -2.9625    0.0000 C   0  0  0  0  0  0  0  0  0  0  0  0
    3.2250   -2.9625    0.0000 C   0  0  0  0  0  0  0  0  0  0  0  0
    3.2250   -2.1292    0.0000 N   0  0  3  0  0  0  0  0  0  0  0  0
    2.5042   -3.3667    0.0000 N   0  0  0  0  0  0  0  0  0  0  0  0
    1.0792   -3.3667    0.0000 N   0  0  3  0  0  0  0  0  0  0  0  0
    0.3750   -2.1375    0.0000 N   0  0  3  0  0  0  0  0  0  0  0  0
    0.3750   -2.9625    0.0000 C   0  0  0  0  0  0  0  0  0  0  0  0
    1.0792   -1.7167    0.0000 C   0  0  0  0  0  0  0  0  0  0  0  0
    3.9417   -3.3750    0.0000 N   0  0  3  0  0  0  0  0  0  0  0  0
    4.6542   -2.9542    0.0000 C   0  0  0  0  0  0  0  0  0  0  0  0
    4.6542   -2.1292    0.0000 C   0  0  0  0  0  0  0  0  0  0  0  0
    5.3667   -3.3667    0.0000 C   0  0  0  0  0  0  0  0  0  0  0  0
    3.9417   -4.1917    0.0000 C   0  0  0  0  0  0  0  0  0  0  0  0
   -0.3458   -3.3750    0.0000 O   0  0  0  0  0  0  0  0  0  0  0  0
    1.0792   -0.8917    0.0000 O   0  0  0  0  0  0  0  0  0  0  0  0
    6.0917   -2.9500    0.0000 C   0  0  0  0  0  0  0  0  0  0  0  0
    1.0792   -4.1917    0.0000 C   0  0  0  0  0  0  0  0  0  0  0  0
   -0.3458   -1.7250    0.0000 C   0  0  0  0  0  0  0  0  0  0  0  0
    4.6667   -4.6125    0.0000 C   0  0  0  0  0  0  0  0  0  0  0  0
    3.2292   -4.6042    0.0000 C   0  0  0  0  0  0  0  0  0  0  0  0
    3.9417   -5.8500    0.0000 C   0  0  0  0  0  0  0  0  0  0  0  0
    6.8042   -3.3625    0.0000 C   0  0  0  0  0  0  0  0  0  0  0  0
    3.2292   -5.4292    0.0000 C   0  0  0  0  0  0  0  0  0  0  0  0
    4.6625   -5.4417    0.0000 C   0  0  0  0  0  0  0  0  0  0  0  0
    3.9417   -6.6750    0.0000 Cl  0  0  0  0  0  0  0  0  0  0  0  0
    5.3750   -4.1917    0.0000 C   0  0  0  0  0  0  0  0  0  0  0  0
    7.5167   -2.9542    0.0000 O   0  0  0  0  0  0  0  0  0  0  0  0
    6.0875   -4.6000    0.0000 C   0  0  0  0  0  0  0  0  0  0  0  0
    6.8042   -4.1917    0.0000 C   0  0  0  0  0  0  0  0  0  0  0  0
    8.2292   -3.3667    0.0000 C   0  0  0  0  0  0  0  0  0  0  0  0
  2  1  2  0  0  0  0
  3  4  1  0  0  0  0
  4  1  1  0  0  0  0
  5  2  1  0  0  0  0
  6  2  1  0  0  0  0
  7  9  1  0  0  0  0
  8  7  1  0  0  0  0
  9  1  1  0  0  0  0
 10  3  1  0  0  0  0
 11 12  2  0  0  0  0
 12  4  1  0  0  0  0
 13 11  1  0  0  0  0
 14 10  1  0  0  0  0
 15  8  2  0  0  0  0
 16  9  2  0  0  0  0
 17 13  1  0  0  0  0
 18  6  1  0  0  0  0
 19  7  1  0  0  0  0
 20 14  1  0  0  0  0
 21 14  2  0  0  0  0
 22 24  2  0  0  0  0
 23 17  2  0  0  0  0
 24 21  1  0  0  0  0
 25 20  2  0  0  0  0
 26 22  1  0  0  0  0
 27 13  2  0  0  0  0
 28 23  1  0  0  0  0
 29 27  1  0  0  0  0
 30 29  2  0  0  0  0
 31 28  1  0  0  0  0
  3  5  2  0  0  0  0
  6  8  1  0  0  0  0
 11 10  1  0  0  0  0
 22 25  1  0  0  0  0
 30 23  1  0  0  0  0
M  END
>  <Code> (P1011001)
P1011001

>  <Number of H-Donors> (P1011001)
0

>  <Number of H-Acceptors> (P1011001)
4

>  <Number of Rotatable bonds> (P1011001)
3

>  <CLogP> (P1011001)
4.100000000000000e+000

>  <Number of Rings> (P1011001)
5

>  <PSA> (P1011001)
7.209999999999999e+001

$$$$

  -ISIS-  11102212342D

 31 35  0  0  0  0  0  0  0  0999 V2000
    1.7917   -2.1375    0.0000 C   0  0  0  0  0  0  0  0  0  0  0  0
    1.8000   -2.9625    0.0000 C   0  0  0  0  0  0  0  0  0  0  0  0
    3.2250   -2.9625    0.0000 C   0  0  0  0  0  0  0  0  0  0  0  0
    3.2250   -2.1292    0.0000 N   0  0  3  0  0  0  0  0  0  0  0  0
    2.5042   -3.3667    0.0000 N   0  0  0  0  0  0  0  0  0  0  0  0
    1.0792   -3.3667    0.0000 N   0  0  3  0  0  0  0  0  0  0  0  0
    0.3750   -2.1375    0.0000 N   0  0  3  0  0  0  0  0  0  0  0  0
    0.3750   -2.9625    0.0000 C   0  0  0  0  0  0  0  0  0  0  0  0
    1.0792   -1.7167    0.0000 C   0  0  0  0  0  0  0  0  0  0  0  0
    3.9417   -3.3750    0.0000 N   0  0  3  0  0  0  0  0  0  0  0  0
    4.6542   -2.9542    0.0000 C   0  0  0  0  0  0  0  0  0  0  0  0
    4.6542   -2.1292    0.0000 C   0  0  0  0  0  0  0  0  0  0  0  0
    5.3667   -3.3667    0.0000 C   0  0  0  0  0  0  0  0  0  0  0  0
    3.9417   -4.1917    0.0000 C   0  0  0  0  0  0  0  0  0  0  0  0
   -0.3458   -3.3750    0.0000 O   0  0  0  0  0  0  0  0  0  0  0  0
    1.0792   -0.8917    0.0000 O   0  0  0  0  0  0  0  0  0  0  0  0
    6.0917   -2.9500    0.0000 C   0  0  0  0  0  0  0  0  0  0  0  0
    1.0792   -4.1917    0.0000 C   0  0  0  0  0  0  0  0  0  0  0  0
   -0.3458   -1.7250    0.0000 C   0  0  0  0  0  0  0  0  0  0  0  0
    4.6667   -4.6125    0.0000 C   0  0  0  0  0  0  0  0  0  0  0  0
    3.2292   -4.6042    0.0000 C   0  0  0  0  0  0  0  0  0  0  0  0
    3.9417   -5.8500    0.0000 C   0  0  0  0  0  0  0  0  0  0  0  0
    6.8042   -3.3625    0.0000 C   0  0  0  0  0  0  0  0  0  0  0  0
    3.2292   -5.4292    0.0000 C   0  0  0  0  0  0  0  0  0  0  0  0
    4.6625   -5.4417    0.0000 C   0  0  0  0  0  0  0  0  0  0  0  0
    3.9417   -6.6750    0.0000 F   0  0  0  0  0  0  0  0  0  0  0  0
    5.3750   -4.1917    0.0000 C   0  0  0  0  0  0  0  0  0  0  0  0
    7.5167   -2.9542    0.0000 O   0  0  0  0  0  0  0  0  0  0  0  0
    6.0875   -4.6000    0.0000 C   0  0  0  0  0  0  0  0  0  0  0  0
    6.8042   -4.1917    0.0000 C   0  0  0  0  0  0  0  0  0  0  0  0
    8.2292   -3.3667    0.0000 C   0  0  0  0  0  0  0  0  0  0  0  0
  2  1  2  0  0  0  0
  3  4  1  0  0  0  0
  4  1  1  0  0  0  0
  5  2  1  0  0  0  0
  6  2  1  0  0  0  0
  7  9  1  0  0  0  0
  8  7  1  0  0  0  0
  9  1  1  0  0  0  0
 10  3  1  0  0  0  0
 11 12  2  0  0  0  0
 12  4  1  0  0  0  0
 13 11  1  0  0  0  0
 14 10  1  0  0  0  0
 15  8  2  0  0  0  0
 16  9  2  0  0  0  0
 17 13  1  0  0  0  0
 18  6  1  0  0  0  0
 19  7  1  0  0  0  0
 20 14  1  0  0  0  0
 21 14  2  0  0  0  0
 22 24  2  0  0  0  0
 23 17  2  0  0  0  0
 24 21  1  0  0  0  0
 25 20  2  0  0  0  0
 26 22  1  0  0  0  0
 27 13  2  0  0  0  0
 28 23  1  0  0  0  0
 29 27  1  0  0  0  0
 30 29  2  0  0  0  0
 31 28  1  0  0  0  0
  3  5  2  0  0  0  0
  6  8  1  0  0  0  0
 11 10  1  0  0  0  0
 22 25  1  0  0  0  0
 30 23  1  0  0  0  0
M  END
>  <Code> (P1010999)
P1010999

>  <Number of H-Donors> (P1010999)
0

>  <Number of H-Acceptors> (P1010999)
4

>  <Number of Rotatable bonds> (P1010999)
3

>  <CLogP> (P1010999)
3.600000000000000e+000

>  <Number of Rings> (P1010999)
5

>  <PSA> (P1010999)
7.209999999999999e+001

$$$$

  -ISIS-  11102212342D

 33 37  0  0  0  0  0  0  0  0999 V2000
    3.2375   -2.0000    0.0000 C   0  0  0  0  0  0  0  0  0  0  0  0
    3.2417   -2.8125    0.0000 C   0  0  0  0  0  0  0  0  0  0  0  0
    4.6542   -2.8125    0.0000 C   0  0  0  0  0  0  0  0  0  0  0  0
    4.6542   -1.9917    0.0000 N   0  0  3  0  0  0  0  0  0  0  0  0
    3.9417   -3.2167    0.0000 N   0  0  0  0  0  0  0  0  0  0  0  0
    2.5292   -3.2167    0.0000 N   0  0  3  0  0  0  0  0  0  0  0  0
    1.8250   -2.0000    0.0000 N   0  0  3  0  0  0  0  0  0  0  0  0
    1.8250   -2.8125    0.0000 C   0  0  0  0  0  0  0  0  0  0  0  0
    2.5292   -1.5792    0.0000 C   0  0  0  0  0  0  0  0  0  0  0  0
    5.3667   -3.2250    0.0000 N   0  0  3  0  0  0  0  0  0  0  0  0
    6.0750   -2.8042    0.0000 C   0  0  0  0  0  0  0  0  0  0  0  0
    6.0750   -1.9917    0.0000 C   0  0  0  0  0  0  0  0  0  0  0  0
    6.8042   -3.2292    0.0000 C   0  0  0  0  0  0  0  0  0  0  0  0
    5.3667   -4.0292    0.0000 C   0  0  0  0  0  0  0  0  0  0  0  0
    7.5375   -2.8000    0.0000 C   0  0  0  0  0  0  0  0  0  0  0  0
    1.1167   -3.2250    0.0000 O   0  0  0  0  0  0  0  0  0  0  0  0
    2.5292   -0.7542    0.0000 O   0  0  0  0  0  0  0  0  0  0  0  0
    8.2667   -3.2250    0.0000 C   0  0  0  0  0  0  0  0  0  0  0  0
    8.2667   -4.0792    0.0000 C   0  0  0  0  0  0  0  0  0  0  0  0
    6.8042   -4.0792    0.0000 C   0  0  0  0  0  0  0  0  0  0  0  0
    2.5292   -4.0292    0.0000 C   0  0  0  0  0  0  0  0  0  0  0  0
    1.1167   -1.5917    0.0000 C   0  0  0  0  0  0  0  0  0  0  0  0
    7.5375   -4.4917    0.0000 C   0  0  0  0  0  0  0  0  0  0  0  0
    6.0875   -4.4542    0.0000 C   0  0  0  0  0  0  0  0  0  0  0  0
    4.6625   -4.4417    0.0000 C   0  0  0  0  0  0  0  0  0  0  0  0
    9.0042   -2.8000    0.0000 Cl  0  0  0  0  0  0  0  0  0  0  0  0
    5.3667   -5.6875    0.0000 C   0  0  0  0  0  0  0  0  0  0  0  0
    4.6625   -5.2667    0.0000 C   0  0  0  0  0  0  0  0  0  0  0  0
    6.0792   -5.2792    0.0000 C   0  0  0  0  0  0  0  0  0  0  0  0
    5.3667   -6.5000    0.0000 F   0  0  0  0  0  0  0  0  0  0  0  0
    9.0042   -4.4917    0.0000 O   0  0  0  0  0  0  0  0  0  0  0  0
    9.0042   -5.3500    0.0000 C   0  0  0  0  0  0  0  0  0  0  0  0
    9.7292   -5.7792    0.0000 C   0  0  0  0  0  0  0  0  0  0  0  0
  2  1  2  0  0  0  0
  3  4  1  0  0  0  0
  4  1  1  0  0  0  0
  5  2  1  0  0  0  0
  6  2  1  0  0  0  0
  7  9  1  0  0  0  0
  8  7  1  0  0  0  0
  9  1  1  0  0  0  0
 10  3  1  0  0  0  0
 11 12  2  0  0  0  0
 12  4  1  0  0  0  0
 13 11  1  0  0  0  0
 14 10  1  0  0  0  0
 15 13  1  0  0  0  0
 16  8  2  0  0  0  0
 17  9  2  0  0  0  0
 18 15  2  0  0  0  0
 19 23  2  0  0  0  0
 20 13  2  0  0  0  0
 21  6  1  0  0  0  0
 22  7  1  0  0  0  0
 23 20  1  0  0  0  0
 24 14  1  0  0  0  0
 25 14  2  0  0  0  0
 26 18  1  0  0  0  0
 27 28  2  0  0  0  0
 28 25  1  0  0  0  0
 29 24  2  0  0  0  0
 30 27  1  0  0  0  0
 31 19  1  0  0  0  0
 32 31  1  0  0  0  0
 33 32  1  0  0  0  0
  5  3  2  0  0  0  0
  8  6  1  0  0  0  0
 10 11  1  0  0  0  0
 29 27  1  0  0  0  0
 18 19  1  0  0  0  0
M  END
>  <Code> (P1010904)
P1010904

>  <Number of H-Donors> (P1010904)
0

>  <Number of H-Acceptors> (P1010904)
4

>  <Number of Rotatable bonds> (P1010904)
4

>  <CLogP> (P1010904)
4.600000000000000e+000

>  <Number of Rings> (P1010904)
5

>  <PSA> (P1010904)
7.209999999999999e+001

$$$$

  -ISIS-  11102212342D

 32 36  0  0  0  0  0  0  0  0999 V2000
    1.7917   -2.1375    0.0000 C   0  0  0  0  0  0  0  0  0  0  0  0
    1.8000   -2.9625    0.0000 C   0  0  0  0  0  0  0  0  0  0  0  0
    3.2250   -2.9625    0.0000 C   0  0  0  0  0  0  0  0  0  0  0  0
    3.2250   -2.1292    0.0000 N   0  0  3  0  0  0  0  0  0  0  0  0
    2.5042   -3.3667    0.0000 N   0  0  0  0  0  0  0  0  0  0  0  0
    1.0792   -3.3667    0.0000 N   0  0  3  0  0  0  0  0  0  0  0  0
    0.3750   -2.1375    0.0000 N   0  0  3  0  0  0  0  0  0  0  0  0
    0.3750   -2.9625    0.0000 C   0  0  0  0  0  0  0  0  0  0  0  0
    1.0792   -1.7167    0.0000 C   0  0  0  0  0  0  0  0  0  0  0  0
    3.9417   -3.3750    0.0000 N   0  0  3  0  0  0  0  0  0  0  0  0
    4.6542   -2.9542    0.0000 C   0  0  0  0  0  0  0  0  0  0  0  0
    4.6542   -2.1292    0.0000 C   0  0  0  0  0  0  0  0  0  0  0  0
    7.5250   -2.9500    0.0000 N   0  3  0  0  0  0  0  0  0  0  0  0
    3.9417   -4.1917    0.0000 C   0  0  0  0  0  0  0  0  0  0  0  0
    5.3667   -3.3667    0.0000 C   0  0  0  0  0  0  0  0  0  0  0  0
    6.8042   -3.3625    0.0000 C   0  0  0  0  0  0  0  0  0  0  0  0
    6.0917   -2.9500    0.0000 C   0  0  0  0  0  0  0  0  0  0  0  0
    4.6667   -4.6125    0.0000 C   0  0  0  0  0  0  0  0  0  0  0  0
   -0.3458   -3.3750    0.0000 O   0  0  0  0  0  0  0  0  0  0  0  0
    1.0792   -0.8917    0.0000 O   0  0  0  0  0  0  0  0  0  0  0  0
    8.2375   -3.3625    0.0000 O   0  5  0  0  0  0  0  0  0  0  0  0
    7.5250   -2.1250    0.0000 O   0  0  0  0  0  0  0  0  0  0  0  0
    1.0792   -4.1917    0.0000 C   0  0  0  0  0  0  0  0  0  0  0  0
   -0.3458   -1.7250    0.0000 C   0  0  0  0  0  0  0  0  0  0  0  0
    4.6625   -5.4417    0.0000 C   0  0  0  0  0  0  0  0  0  0  0  0
    3.2292   -4.6042    0.0000 C   0  0  0  0  0  0  0  0  0  0  0  0
    5.3750   -5.8542    0.0000 Cl  0  0  0  0  0  0  0  0  0  0  0  0
    5.3750   -4.1917    0.0000 C   0  0  0  0  0  0  0  0  0  0  0  0
    6.8042   -4.1917    0.0000 C   0  0  0  0  0  0  0  0  0  0  0  0
    6.0875   -4.6000    0.0000 C   0  0  0  0  0  0  0  0  0  0  0  0
    3.2292   -5.4292    0.0000 C   0  0  0  0  0  0  0  0  0  0  0  0
    3.9417   -5.8500    0.0000 C   0  0  0  0  0  0  0  0  0  0  0  0
  2  1  2  0  0  0  0
  3  4  1  0  0  0  0
  4  1  1  0  0  0  0
  5  2  1  0  0  0  0
  6  2  1  0  0  0  0
  7  9  1  0  0  0  0
  8  7  1  0  0  0  0
  9  1  1  0  0  0  0
 10  3  1  0  0  0  0
 11 12  2  0  0  0  0
 12  4  1  0  0  0  0
 13 16  1  0  0  0  0
 14 10  1  0  0  0  0
 15 11  1  0  0  0  0
 16 17  2  0  0  0  0
 17 15  1  0  0  0  0
 18 14  1  0  0  0  0
 19  8  2  0  0  0  0
 20  9  2  0  0  0  0
 21 13  1  0  0  0  0
 22 13  2  0  0  0  0
 23  6  1  0  0  0  0
 24  7  1  0  0  0  0
 25 18  2  0  0  0  0
 26 14  2  0  0  0  0
 27 25  1  0  0  0  0
 28 15  2  0  0  0  0
 29 30  2  0  0  0  0
 30 28  1  0  0  0  0
 31 26  1  0  0  0  0
 32 31  2  0  0  0  0
  3  5  2  0  0  0  0
  6  8  1  0  0  0  0
 11 10  1  0  0  0  0
 16 29  1  0  0  0  0
 32 25  1  0  0  0  0
M  CHG  2  13   1  21  -1
M  END
>  <Code> (P1010846)
P1010846

>  <Number of H-Donors> (P1010846)
0

>  <Number of H-Acceptors> (P1010846)
5

>  <Number of Rotatable bonds> (P1010846)
3

>  <CLogP> (P1010846)
4.000000000000000e+000

>  <Number of Rings> (P1010846)
5

>  <PSA> (P1010846)
1.087000000000000e+002

$$$$

  -ISIS-  11102212342D

 25 28  0  0  0  0  0  0  0  0999 V2000
    1.7875   -2.1292    0.0000 C   0  0  0  0  0  0  0  0  0  0  0  0
    1.7917   -2.9542    0.0000 C   0  0  0  0  0  0  0  0  0  0  0  0
    3.2167   -2.9542    0.0000 C   0  0  0  0  0  0  0  0  0  0  0  0
    3.2167   -2.1250    0.0000 N   0  0  3  0  0  0  0  0  0  0  0  0
    2.5000   -3.3625    0.0000 N   0  0  0  0  0  0  0  0  0  0  0  0
    1.0750   -3.3625    0.0000 N   0  0  3  0  0  0  0  0  0  0  0  0
    0.3667   -2.1292    0.0000 N   0  0  3  0  0  0  0  0  0  0  0  0
    0.3667   -2.9542    0.0000 C   0  0  0  0  0  0  0  0  0  0  0  0
    1.0750   -1.7125    0.0000 C   0  0  0  0  0  0  0  0  0  0  0  0
    3.9375   -3.3667    0.0000 N   0  0  3  0  0  0  0  0  0  0  0  0
    4.6500   -2.1250    0.0000 C   0  0  0  0  0  0  0  0  0  0  0  0
    4.6500   -2.9500    0.0000 C   0  0  0  0  0  0  0  0  0  0  0  0
    3.9375   -4.1875    0.0000 C   0  0  0  0  0  0  0  0  0  0  0  0
   -0.3458   -3.3667    0.0000 O   0  0  0  0  0  0  0  0  0  0  0  0
    1.0750   -0.8875    0.0000 O   0  0  0  0  0  0  0  0  0  0  0  0
    1.0750   -4.1875    0.0000 C   0  0  0  0  0  0  0  0  0  0  0  0
   -0.3458   -1.7167    0.0000 C   0  0  0  0  0  0  0  0  0  0  0  0
    3.2167   -4.6000    0.0000 C   0  0  0  0  0  0  0  0  0  0  0  0
    5.3625   -3.3625    0.0000 C   0  0  0  0  0  0  0  0  0  0  0  0
    3.2125   -5.4292    0.0000 C   0  0  0  0  0  0  0  0  0  0  0  0
    2.5000   -5.8500    0.0000 C   0  0  0  0  0  0  0  0  0  0  0  0
    3.9292   -5.8500    0.0000 C   0  0  0  0  0  0  0  0  0  0  0  0
    2.5000   -6.6750    0.0000 C   0  0  0  0  0  0  0  0  0  0  0  0
    3.9292   -6.6750    0.0000 C   0  0  0  0  0  0  0  0  0  0  0  0
    3.2125   -7.0792    0.0000 C   0  0  0  0  0  0  0  0  0  0  0  0
  2  1  2  0  0  0  0
  3  4  1  0  0  0  0
  4  1  1  0  0  0  0
  5  2  1  0  0  0  0
  6  2  1  0  0  0  0
  7  9  1  0  0  0  0
  8  7  1  0  0  0  0
  9  1  1  0  0  0  0
 10  3  1  0  0  0  0
 11  4  1  0  0  0  0
 12 11  2  0  0  0  0
 13 10  1  0  0  0  0
 14  8  2  0  0  0  0
 15  9  2  0  0  0  0
 16  6  1  0  0  0  0
 17  7  1  0  0  0  0
 18 13  1  0  0  0  0
 19 12  1  0  0  0  0
 20 18  1  0  0  0  0
 21 20  1  0  0  0  0
 22 20  2  0  0  0  0
 23 21  2  0  0  0  0
 24 22  1  0  0  0  0
 25 24  2  0  0  0  0
  3  5  2  0  0  0  0
  6  8  1  0  0  0  0
 12 10  1  0  0  0  0
 23 25  1  0  0  0  0
M  END
>  <Code> (P1010819)
P1010819

>  <Number of H-Donors> (P1010819)
0

>  <Number of H-Acceptors> (P1010819)
3

>  <Number of Rotatable bonds> (P1010819)
3

>  <CLogP> (P1010819)
2.100000000000000e+000

>  <Number of Rings> (P1010819)
4

>  <PSA> (P1010819)
6.290000000000000e+001

$$$$

  -ISIS-  11102212342D

 25 27  0  0  0  0  0  0  0  0999 V2000
    3.6792    1.7333    0.0000 N   0  0  3  0  0  0  0  0  0  0  0  0
    4.1667    1.0708    0.0000 C   0  0  0  0  0  0  0  0  0  0  0  0
    4.9500    1.3208    0.0000 C   0  0  0  0  0  0  0  0  0  0  0  0
    4.1667    2.4083    0.0000 N   0  0  0  0  0  0  0  0  0  0  0  0
    4.9500    2.1583    0.0000 N   0  0  0  0  0  0  0  0  0  0  0  0
    2.8542    1.7333    0.0000 C   0  0  0  0  0  0  0  0  0  0  0  0
    5.6167    0.8375    0.0000 C   0  0  0  0  0  0  0  0  0  0  0  0
    2.4417    2.4583    0.0000 C   0  0  0  0  0  0  0  0  0  0  0  0
    1.6167    2.4583    0.0000 C   0  0  0  0  0  0  0  0  0  0  0  0
    6.3667    1.1833    0.0000 N   0  0  0  0  0  0  0  0  0  0  0  0
    3.9042    0.2875    0.0000 N   0  0  0  0  0  0  0  0  0  0  0  0
    1.2042    1.7333    0.0000 C   0  0  0  0  0  0  0  0  0  0  0  0
    2.4417    1.0208    0.0000 C   0  0  0  0  0  0  0  0  0  0  0  0
    5.5250    0.0208    0.0000 O   0  0  0  0  0  0  0  0  0  0  0  0
    1.6167    1.0208    0.0000 C   0  0  0  0  0  0  0  0  0  0  0  0
    7.0375    0.6875    0.0000 C   0  0  0  0  0  0  0  0  0  0  0  0
    0.3792    1.7333    0.0000 Cl  0  0  0  0  0  0  0  0  0  0  0  0
    1.2042    3.1708    0.0000 O   0  0  0  0  0  0  0  0  0  0  0  0
    7.7917    1.0333    0.0000 C   0  0  0  0  0  0  0  0  0  0  0  0
    1.6167    3.8833    0.0000 C   0  0  0  0  0  0  0  0  0  0  0  0
    8.4542    0.5375    0.0000 C   0  0  0  0  0  0  0  0  0  0  0  0
    7.8750    1.8458    0.0000 C   0  0  0  0  0  0  0  0  0  0  0  0
    8.6292    2.1833    0.0000 C   0  0  0  0  0  0  0  0  0  0  0  0
    9.2042    0.8750    0.0000 C   0  0  0  0  0  0  0  0  0  0  0  0
    9.2917    1.6958    0.0000 C   0  0  0  0  0  0  0  0  0  0  0  0
  2  1  1  0  0  0  0
  3  2  2  0  0  0  0
  4  1  1  0  0  0  0
  5  4  2  0  0  0  0
  6  1  1  0  0  0  0
  7  3  1  0  0  0  0
  8  6  1  0  0  0  0
  9  8  2  0  0  0  0
 10  7  1  0  0  0  0
 11  2  1  0  0  0  0
 12 15  2  0  0  0  0
 13  6  2  0  0  0  0
 14  7  2  0  0  0  0
 15 13  1  0  0  0  0
 16 10  1  0  0  0  0
 17 12  1  0  0  0  0
 18  9  1  0  0  0  0
 19 16  1  0  0  0  0
 20 18  1  0  0  0  0
 21 19  2  0  0  0  0
 22 19  1  0  0  0  0
 23 22  2  0  0  0  0
 24 21  1  0  0  0  0
 25 23  1  0  0  0  0
  3  5  1  0  0  0  0
 12  9  1  0  0  0  0
 24 25  2  0  0  0  0
M  END
>  <Code> (P1007742)
P1007742

>  <Number of H-Donors> (P1007742)
2

>  <Number of H-Acceptors> (P1007742)
5

>  <Number of Rotatable bonds> (P1007742)
5

>  <CLogP> (P1007742)
2.800000000000000e+000

>  <Number of Rings> (P1007742)
3

>  <PSA> (P1007742)
9.510000000000002e+001

$$$$

  -ISIS-  11102212342D

 28 31  0  0  0  0  0  0  0  0999 V2000
    2.9000   -3.3542    0.0000 N   0  0  3  0  0  0  0  0  0  0  0  0
    3.1542   -2.5667    0.0000 C   0  0  0  0  0  0  0  0  0  0  0  0
    2.4875   -2.0792    0.0000 N   0  0  0  0  0  0  0  0  0  0  0  0
    1.8250   -2.5667    0.0000 N   0  0  0  0  0  0  0  0  0  0  0  0
    2.0667   -3.3542    0.0000 N   0  0  0  0  0  0  0  0  0  0  0  0
    3.3792   -4.0167    0.0000 C   0  0  0  0  0  0  0  0  0  0  0  0
    3.0417   -4.7667    0.0000 C   0  0  0  0  0  0  0  0  0  0  0  0
    3.9417   -2.3125    0.0000 S   0  0  0  0  0  0  0  0  0  0  0  0
    3.5292   -5.4375    0.0000 C   0  0  0  0  0  0  0  0  0  0  0  0
    8.1292   -3.2042    0.0000 C   0  0  0  0  0  0  0  0  0  0  0  0
    7.3500   -3.4667    0.0000 C   0  0  0  0  0  0  0  0  0  0  0  0
    5.3417   -2.6125    0.0000 C   0  0  0  0  0  0  0  0  0  0  0  0
    5.9542   -3.1667    0.0000 N   0  0  0  0  0  0  0  0  0  0  0  0
    6.7375   -2.9125    0.0000 C   0  0  0  0  0  0  0  0  0  0  0  0
    8.7417   -3.7542    0.0000 N   0  0  0  0  0  0  0  0  0  0  0  0
    9.0792   -2.1500    0.0000 N   0  0  0  0  0  0  0  0  0  0  0  0
    8.3042   -2.4042    0.0000 C   0  0  0  0  0  0  0  0  0  0  0  0
    4.2000   -3.9292    0.0000 C   0  0  0  0  0  0  0  0  0  0  0  0
    4.3500   -5.3542    0.0000 C   0  0  0  0  0  0  0  0  0  0  0  0
    5.5125   -1.8042    0.0000 O   0  0  0  0  0  0  0  0  0  0  0  0
    4.6875   -4.5917    0.0000 C   0  0  0  0  0  0  0  0  0  0  0  0
    4.5542   -2.8667    0.0000 C   0  0  0  0  0  0  0  0  0  0  0  0
    7.6875   -1.8500    0.0000 C   0  0  0  0  0  0  0  0  0  0  0  0
    3.1917   -6.1917    0.0000 Cl  0  0  0  0  0  0  0  0  0  0  0  0
    6.9042   -2.1042    0.0000 C   0  0  0  0  0  0  0  0  0  0  0  0
    9.5250   -3.5042    0.0000 C   0  0  0  0  0  0  0  0  0  0  0  0
    9.6917   -2.7000    0.0000 C   0  0  0  0  0  0  0  0  0  0  0  0
    4.8375   -6.0167    0.0000 C   0  0  0  0  0  0  0  0  0  0  0  0
  2  1  1  0  0  0  0
  3  2  2  0  0  0  0
  4  5  2  0  0  0  0
  5  1  1  0  0  0  0
  6  1  1  0  0  0  0
  7  6  2  0  0  0  0
  8  2  1  0  0  0  0
  9  7  1  0  0  0  0
 10 11  1  0  0  0  0
 11 14  2  0  0  0  0
 12 22  1  0  0  0  0
 13 12  1  0  0  0  0
 14 13  1  0  0  0  0
 15 10  2  0  0  0  0
 16 17  2  0  0  0  0
 17 23  1  0  0  0  0
 18  6  1  0  0  0  0
 19 21  1  0  0  0  0
 20 12  2  0  0  0  0
 21 18  2  0  0  0  0
 22  8  1  0  0  0  0
 23 25  2  0  0  0  0
 24  9  1  0  0  0  0
 25 14  1  0  0  0  0
 26 15  1  0  0  0  0
 27 16  1  0  0  0  0
 28 19  1  0  0  0  0
  4  3  1  0  0  0  0
 19  9  2  0  0  0  0
 10 17  1  0  0  0  0
 27 26  2  0  0  0  0
M  END
>  <Code> (P1006814)
P1006814

>  <Number of H-Donors> (P1006814)
1

>  <Number of H-Acceptors> (P1006814)
7

>  <Number of Rotatable bonds> (P1006814)
5

>  <CLogP> (P1006814)
3.100000000000000e+000

>  <Number of Rings> (P1006814)
4

>  <PSA> (P1006814)
1.238000000000000e+002

$$$$

  -ISIS-  11102212342D

 25 27  0  0  0  0  0  0  0  0999 V2000
    5.5875   -2.7917    0.0000 C   0  0  0  0  0  0  0  0  0  0  0  0
    6.6500   -3.6000    0.0000 C   0  0  0  0  0  0  0  0  0  0  0  0
    5.9750   -4.0667    0.0000 N   0  0  3  0  0  0  0  0  0  0  0  0
    6.4125   -2.8125    0.0000 C   0  0  0  0  0  0  0  0  0  0  0  0
    5.3167   -3.5750    0.0000 N   0  0  0  0  0  0  0  0  0  0  0  0
    5.1167   -2.1167    0.0000 C   0  0  0  0  0  0  0  0  0  0  0  0
    7.4292   -3.8750    0.0000 C   0  0  0  0  0  0  0  0  0  0  0  0
    5.4667   -1.3667    0.0000 N   0  0  3  0  0  0  0  0  0  0  0  0
    5.9542   -4.9000    0.0000 C   0  0  0  0  0  0  0  0  0  0  0  0
    6.9125   -2.1542    0.0000 N   0  0  0  0  0  0  0  0  0  0  0  0
    4.3000   -2.1875    0.0000 O   0  0  0  0  0  0  0  0  0  0  0  0
    7.5875   -4.6792    0.0000 O   0  0  0  0  0  0  0  0  0  0  0  0
    6.1792    0.1083    0.0000 O   0  0  0  0  0  0  0  0  0  0  0  0
    5.2292   -5.2875    0.0000 C   0  0  0  0  0  0  0  0  0  0  0  0
    6.6625   -5.3250    0.0000 C   0  0  0  0  0  0  0  0  0  0  0  0
    8.0542   -3.3292    0.0000 O   0  0  0  0  0  0  0  0  0  0  0  0
    5.9125   -6.5417    0.0000 C   0  0  0  0  0  0  0  0  0  0  0  0
    6.6375   -6.1500    0.0000 C   0  0  0  0  0  0  0  0  0  0  0  0
    5.2125   -6.1125    0.0000 C   0  0  0  0  0  0  0  0  0  0  0  0
    5.8875   -7.3667    0.0000 Cl  0  0  0  0  0  0  0  0  0  0  0  0
    6.2917   -1.3042    0.0000 C   0  0  0  0  0  0  0  0  0  0  0  0
    5.0000   -0.7000    0.0000 C   0  0  0  0  0  0  0  0  0  0  0  0
    5.3542    0.0458    0.0000 C   0  0  0  0  0  0  0  0  0  0  0  0
    6.6500   -0.5625    0.0000 C   0  0  0  0  0  0  0  0  0  0  0  0
    8.8375   -3.6000    0.0000 C   0  0  0  0  0  0  0  0  0  0  0  0
  2  4  2  0  0  0  0
  3  5  1  0  0  0  0
  4  1  1  0  0  0  0
  5  1  2  0  0  0  0
  6  1  1  0  0  0  0
  7  2  1  0  0  0  0
  8  6  1  0  0  0  0
  9  3  1  0  0  0  0
 10  4  1  0  0  0  0
 11  6  2  0  0  0  0
 12  7  2  0  0  0  0
 13 23  1  0  0  0  0
 14  9  2  0  0  0  0
 15  9  1  0  0  0  0
 16  7  1  0  0  0  0
 17 18  1  0  0  0  0
 18 15  2  0  0  0  0
 19 14  1  0  0  0  0
 20 17  1  0  0  0  0
 21  8  1  0  0  0  0
 22  8  1  0  0  0  0
 23 22  1  0  0  0  0
 24 21  1  0  0  0  0
 25 16  1  0  0  0  0
  3  2  1  0  0  0  0
 24 13  1  0  0  0  0
 19 17  2  0  0  0  0
M  END
>  <Code> (P1005948)
P1005948

>  <Number of H-Donors> (P1005948)
1

>  <Number of H-Acceptors> (P1005948)
6

>  <Number of Rotatable bonds> (P1005948)
4

>  <CLogP> (P1005948)
1.700000000000000e+000

>  <Number of Rings> (P1005948)
3

>  <PSA> (P1005948)
9.970000000000000e+001

$$$$

  -ISIS-  11102212342D

 32 35  0  0  0  0  0  0  0  0999 V2000
    6.7542   -5.8667    0.0000 C   0  0  0  0  0  0  0  0  0  0  0  0
    8.0792   -5.8667    0.0000 N   0  0  3  0  0  0  0  0  0  0  0  0
    7.0000   -6.6542    0.0000 C   0  0  0  0  0  0  0  0  0  0  0  0
    7.8250   -6.6542    0.0000 C   0  0  0  0  0  0  0  0  0  0  0  0
    7.4125   -5.3917    0.0000 C   0  0  3  0  0  0  0  0  0  0  0  0
    5.9667   -5.6167    0.0000 C   0  0  0  0  0  0  0  0  0  0  0  0
    5.3542   -6.1667    0.0000 C   0  0  0  0  0  0  0  0  0  0  0  0
    4.5667   -5.9167    0.0000 C   0  0  0  0  0  0  0  0  0  0  0  0
    8.8667   -5.6167    0.0000 C   0  0  0  0  0  0  0  0  0  0  0  0
    3.9542   -6.4667    0.0000 C   0  0  0  0  0  0  0  0  0  0  0  0
    5.5292   -6.9667    0.0000 C   0  0  0  0  0  0  0  0  0  0  0  0
    7.4125   -4.5667    0.0000 C   0  0  0  0  0  0  0  0  0  0  0  0
    8.3125   -7.3250    0.0000 O   0  0  0  0  0  0  0  0  0  0  0  0
    5.7917   -4.8167    0.0000 O   0  0  0  0  0  0  0  0  0  0  0  0
    6.5167   -7.3250    0.0000 O   0  0  0  0  0  0  0  0  0  0  0  0
    4.1292   -7.2750    0.0000 C   0  0  0  0  0  0  0  0  0  0  0  0
    4.9167   -7.5250    0.0000 C   0  0  0  0  0  0  0  0  0  0  0  0
    8.1292   -4.1417    0.0000 C   0  0  0  0  0  0  0  0  0  0  0  0
    6.7042   -4.1542    0.0000 C   0  0  0  0  0  0  0  0  0  0  0  0
    4.3917   -5.1042    0.0000 O   0  0  0  0  0  0  0  0  0  0  0  0
    9.4792   -6.1667    0.0000 C   0  0  0  0  0  0  0  0  0  0  0  0
   10.2667   -5.9542    0.0000 N   0  0  3  0  0  0  0  0  0  0  0  0
    7.4125   -2.9167    0.0000 C   0  0  0  0  0  0  0  0  0  0  0  0
    6.6917   -3.3375    0.0000 C   0  0  0  0  0  0  0  0  0  0  0  0
    8.1292   -3.3292    0.0000 C   0  0  0  0  0  0  0  0  0  0  0  0
    7.4125   -2.0875    0.0000 F   0  0  0  0  0  0  0  0  0  0  0  0
    3.1750   -6.2167    0.0000 C   0  0  0  0  0  0  0  0  0  0  0  0
   10.8542   -6.5292    0.0000 C   0  0  0  0  0  0  0  0  0  0  0  0
   10.4750   -5.1542    0.0000 C   0  0  0  0  0  0  0  0  0  0  0  0
    3.5167   -7.8292    0.0000 C   0  0  0  0  0  0  0  0  0  0  0  0
    2.5625   -6.7667    0.0000 C   0  0  0  0  0  0  0  0  0  0  0  0
    2.7375   -7.5750    0.0000 C   0  0  0  0  0  0  0  0  0  0  0  0
  2  5  1  0  0  0  0
  3  1  2  0  0  0  0
  4  3  1  0  0  0  0
  5  1  1  0  0  0  0
  6  1  1  0  0  0  0
  7  6  1  0  0  0  0
  8  7  2  0  0  0  0
  9  2  1  0  0  0  0
 10  8  1  0  0  0  0
 11  7  1  0  0  0  0
 12  5  1  0  0  0  0
 13  4  2  0  0  0  0
 14  6  2  0  0  0  0
 15  3  1  0  0  0  0
 16 17  1  0  0  0  0
 17 11  2  0  0  0  0
 18 12  2  0  0  0  0
 19 12  1  0  0  0  0
 20  8  1  0  0  0  0
 21  9  1  0  0  0  0
 22 21  1  0  0  0  0
 23 24  1  0  0  0  0
 24 19  2  0  0  0  0
 25 18  1  0  0  0  0
 26 23  1  0  0  0  0
 27 10  2  0  0  0  0
 28 22  1  0  0  0  0
 29 22  1  0  0  0  0
 30 16  2  0  0  0  0
 31 27  1  0  0  0  0
 32 30  1  0  0  0  0
  4  2  1  0  0  0  0
 25 23  2  0  0  0  0
 16 10  1  0  0  0  0
 31 32  2  0  0  0  0
M  END
>  <Code> (P1005537)
P1005537

>  <Number of H-Donors> (P1005537)
2

>  <Number of H-Acceptors> (P1005537)
5

>  <Number of Rotatable bonds> (P1005537)
6

>  <CLogP> (P1005537)
3.400000000000000e+000

>  <Number of Rings> (P1005537)
4

>  <PSA> (P1005537)
8.110000000000001e+001

$$$$

  -ISIS-  11102212342D

 32 35  0  0  0  0  0  0  0  0999 V2000
    6.7542   -5.8667    0.0000 C   0  0  0  0  0  0  0  0  0  0  0  0
    8.0792   -5.8667    0.0000 N   0  0  3  0  0  0  0  0  0  0  0  0
    7.0000   -6.6542    0.0000 C   0  0  0  0  0  0  0  0  0  0  0  0
    7.8250   -6.6542    0.0000 C   0  0  0  0  0  0  0  0  0  0  0  0
    7.4125   -5.3917    0.0000 C   0  0  3  0  0  0  0  0  0  0  0  0
    5.9667   -5.6167    0.0000 C   0  0  0  0  0  0  0  0  0  0  0  0
    5.3542   -6.1667    0.0000 C   0  0  0  0  0  0  0  0  0  0  0  0
    4.5667   -5.9167    0.0000 C   0  0  0  0  0  0  0  0  0  0  0  0
    8.8667   -5.6167    0.0000 C   0  0  0  0  0  0  0  0  0  0  0  0
    3.9542   -6.4667    0.0000 C   0  0  0  0  0  0  0  0  0  0  0  0
    5.5292   -6.9667    0.0000 C   0  0  0  0  0  0  0  0  0  0  0  0
    7.4125   -4.5667    0.0000 C   0  0  0  0  0  0  0  0  0  0  0  0
    8.3125   -7.3250    0.0000 O   0  0  0  0  0  0  0  0  0  0  0  0
    5.7917   -4.8167    0.0000 O   0  0  0  0  0  0  0  0  0  0  0  0
    6.5167   -7.3250    0.0000 O   0  0  0  0  0  0  0  0  0  0  0  0
    4.1292   -7.2750    0.0000 C   0  0  0  0  0  0  0  0  0  0  0  0
    4.9167   -7.5250    0.0000 C   0  0  0  0  0  0  0  0  0  0  0  0
    8.1292   -4.1417    0.0000 C   0  0  0  0  0  0  0  0  0  0  0  0
    6.7042   -4.1542    0.0000 C   0  0  0  0  0  0  0  0  0  0  0  0
    4.3917   -5.1042    0.0000 O   0  0  0  0  0  0  0  0  0  0  0  0
    9.4792   -6.1667    0.0000 C   0  0  0  0  0  0  0  0  0  0  0  0
   10.2667   -5.9542    0.0000 N   0  0  3  0  0  0  0  0  0  0  0  0
    7.4125   -2.9167    0.0000 C   0  0  0  0  0  0  0  0  0  0  0  0
    6.6917   -3.3375    0.0000 C   0  0  0  0  0  0  0  0  0  0  0  0
    8.1292   -3.3292    0.0000 C   0  0  0  0  0  0  0  0  0  0  0  0
    7.4125   -2.0875    0.0000 Cl  0  0  0  0  0  0  0  0  0  0  0  0
    3.1750   -6.2167    0.0000 C   0  0  0  0  0  0  0  0  0  0  0  0
   10.8542   -6.5292    0.0000 C   0  0  0  0  0  0  0  0  0  0  0  0
   10.4750   -5.1542    0.0000 C   0  0  0  0  0  0  0  0  0  0  0  0
    3.5167   -7.8292    0.0000 C   0  0  0  0  0  0  0  0  0  0  0  0
    2.5625   -6.7667    0.0000 C   0  0  0  0  0  0  0  0  0  0  0  0
    2.7375   -7.5750    0.0000 C   0  0  0  0  0  0  0  0  0  0  0  0
  2  5  1  0  0  0  0
  3  1  2  0  0  0  0
  4  3  1  0  0  0  0
  5  1  1  0  0  0  0
  6  1  1  0  0  0  0
  7  6  1  0  0  0  0
  8  7  2  0  0  0  0
  9  2  1  0  0  0  0
 10  8  1  0  0  0  0
 11  7  1  0  0  0  0
 12  5  1  0  0  0  0
 13  4  2  0  0  0  0
 14  6  2  0  0  0  0
 15  3  1  0  0  0  0
 16 17  1  0  0  0  0
 17 11  2  0  0  0  0
 18 12  2  0  0  0  0
 19 12  1  0  0  0  0
 20  8  1  0  0  0  0
 21  9  1  0  0  0  0
 22 21  1  0  0  0  0
 23 24  1  0  0  0  0
 24 19  2  0  0  0  0
 25 18  1  0  0  0  0
 26 23  1  0  0  0  0
 27 10  2  0  0  0  0
 28 22  1  0  0  0  0
 29 22  1  0  0  0  0
 30 16  2  0  0  0  0
 31 27  1  0  0  0  0
 32 30  1  0  0  0  0
  4  2  1  0  0  0  0
 25 23  2  0  0  0  0
 16 10  1  0  0  0  0
 31 32  2  0  0  0  0
M  END
>  <Code> (P1005533)
P1005533

>  <Number of H-Donors> (P1005533)
2

>  <Number of H-Acceptors> (P1005533)
5

>  <Number of Rotatable bonds> (P1005533)
6

>  <CLogP> (P1005533)
3.900000000000000e+000

>  <Number of Rings> (P1005533)
4

>  <PSA> (P1005533)
8.110000000000001e+001

$$$$

  -ISIS-  11102212342D

 34 37  0  0  0  0  0  0  0  0999 V2000
    6.3625   -5.8875    0.0000 C   0  0  0  0  0  0  0  0  0  0  0  0
    7.6917   -5.8875    0.0000 N   0  0  3  0  0  0  0  0  0  0  0  0
    6.6125   -6.6750    0.0000 C   0  0  0  0  0  0  0  0  0  0  0  0
    7.4375   -6.6750    0.0000 C   0  0  0  0  0  0  0  0  0  0  0  0
    7.0250   -5.4042    0.0000 C   0  0  3  0  0  0  0  0  0  0  0  0
    5.5792   -5.6292    0.0000 C   0  0  0  0  0  0  0  0  0  0  0  0
    4.9625   -6.1875    0.0000 C   0  0  0  0  0  0  0  0  0  0  0  0
    4.1792   -5.9292    0.0000 C   0  0  0  0  0  0  0  0  0  0  0  0
    7.0250   -4.5792    0.0000 C   0  0  0  0  0  0  0  0  0  0  0  0
    3.5667   -6.4792    0.0000 C   0  0  0  0  0  0  0  0  0  0  0  0
    5.1375   -6.9875    0.0000 C   0  0  0  0  0  0  0  0  0  0  0  0
    7.9250   -7.3417    0.0000 O   0  0  0  0  0  0  0  0  0  0  0  0
    5.4042   -4.8292    0.0000 O   0  0  0  0  0  0  0  0  0  0  0  0
    7.7417   -4.1625    0.0000 C   0  0  0  0  0  0  0  0  0  0  0  0
    6.1292   -7.3417    0.0000 O   0  0  0  0  0  0  0  0  0  0  0  0
    8.4792   -5.6292    0.0000 C   0  0  0  0  0  0  0  0  0  0  0  0
    3.7417   -7.2875    0.0000 C   0  0  0  0  0  0  0  0  0  0  0  0
    4.5292   -7.5417    0.0000 C   0  0  0  0  0  0  0  0  0  0  0  0
    4.0042   -5.1167    0.0000 O   0  0  0  0  0  0  0  0  0  0  0  0
    9.0917   -6.1875    0.0000 C   0  0  0  0  0  0  0  0  0  0  0  0
    7.7417   -3.3417    0.0000 C   0  0  0  0  0  0  0  0  0  0  0  0
   10.4917   -6.4792    0.0000 N   0  0  3  0  0  0  0  0  0  0  0  0
    6.3125   -4.1667    0.0000 C   0  0  0  0  0  0  0  0  0  0  0  0
    8.4500   -2.9292    0.0000 O   0  0  0  0  0  0  0  0  0  0  0  0
    2.7875   -6.2292    0.0000 C   0  0  0  0  0  0  0  0  0  0  0  0
    9.8792   -5.9292    0.0000 C   0  0  0  0  0  0  0  0  0  0  0  0
    6.3042   -3.3417    0.0000 C   0  0  0  0  0  0  0  0  0  0  0  0
    7.0250   -2.9292    0.0000 C   0  0  0  0  0  0  0  0  0  0  0  0
   10.3167   -7.2917    0.0000 C   0  0  0  0  0  0  0  0  0  0  0  0
   11.2750   -6.2292    0.0000 C   0  0  0  0  0  0  0  0  0  0  0  0
    3.1292   -7.8375    0.0000 C   0  0  0  0  0  0  0  0  0  0  0  0
    8.4500   -2.1042    0.0000 C   0  0  0  0  0  0  0  0  0  0  0  0
    2.1750   -6.7792    0.0000 C   0  0  0  0  0  0  0  0  0  0  0  0
    2.3500   -7.5875    0.0000 C   0  0  0  0  0  0  0  0  0  0  0  0
  2  5  1  0  0  0  0
  3  1  2  0  0  0  0
  4  3  1  0  0  0  0
  5  1  1  0  0  0  0
  6  1  1  0  0  0  0
  7  6  1  0  0  0  0
  8  7  2  0  0  0  0
  9  5  1  0  0  0  0
 10  8  1  0  0  0  0
 11  7  1  0  0  0  0
 12  4  2  0  0  0  0
 13  6  2  0  0  0  0
 14  9  2  0  0  0  0
 15  3  1  0  0  0  0
 16  2  1  0  0  0  0
 17 18  1  0  0  0  0
 18 11  2  0  0  0  0
 19  8  1  0  0  0  0
 20 16  1  0  0  0  0
 21 14  1  0  0  0  0
 22 26  1  0  0  0  0
 23  9  1  0  0  0  0
 24 21  1  0  0  0  0
 25 10  2  0  0  0  0
 26 20  1  0  0  0  0
 27 23  2  0  0  0  0
 28 27  1  0  0  0  0
 29 22  1  0  0  0  0
 30 22  1  0  0  0  0
 31 17  2  0  0  0  0
 32 24  1  0  0  0  0
 33 25  1  0  0  0  0
 34 31  1  0  0  0  0
  4  2  1  0  0  0  0
 17 10  1  0  0  0  0
 21 28  2  0  0  0  0
 33 34  2  0  0  0  0
M  END
>  <Code> (P1005474)
P1005474

>  <Number of H-Donors> (P1005474)
2

>  <Number of H-Acceptors> (P1005474)
6

>  <Number of Rotatable bonds> (P1005474)
8

>  <CLogP> (P1005474)
3.200000000000000e+000

>  <Number of Rings> (P1005474)
4

>  <PSA> (P1005474)
9.030000000000000e+001

$$$$

  -ISIS-  11102212342D

 16 17  0  0  0  0  0  0  0  0999 V2000
   -4.0333   -0.1375    0.0000 N   0  0  0  0  0  0  0  0  0  0  0  0
   -1.8333   -0.1375    0.0000 C   0  0  0  0  0  0  0  0  0  0  0  0
   -2.9333    0.5125    0.0000 C   0  0  0  0  0  0  0  0  0  0  0  0
   -1.8333   -1.4042    0.0000 N   0  0  0  0  0  0  0  0  0  0  0  0
   -4.0333   -1.4042    0.0000 C   0  0  0  0  0  0  0  0  0  0  0  0
    2.9667    2.0708    0.0000 N   0  0  0  0  0  0  0  0  0  0  0  0
    2.7375   -0.0000    0.0000 C   0  0  0  0  0  0  0  0  0  0  0  0
   -2.9333   -2.0500    0.0000 N   0  0  0  0  0  0  0  0  0  0  0  0
    1.7042    1.8458    0.0000 N   0  0  0  0  0  0  0  0  0  0  0  0
    1.5542    0.5208    0.0000 C   0  0  0  0  0  0  0  0  0  0  0  0
    3.6375    0.9625    0.0000 C   0  0  0  0  0  0  0  0  0  0  0  0
   -0.6958    0.5333    0.0000 S   0  0  0  0  0  0  0  0  0  0  0  0
   -2.9333    1.8000    0.0000 O   0  0  0  0  0  0  0  0  0  0  0  0
   -5.1583   -2.0667    0.0000 O   0  0  0  0  0  0  0  0  0  0  0  0
    0.4500   -0.1167    0.0000 C   0  0  0  0  0  0  0  0  0  0  0  0
    4.9167    0.8458    0.0000 O   0  0  0  0  0  0  0  0  0  0  0  0
  2  3  1  0  0  0  0
  3  1  1  0  0  0  0
  4  8  1  0  0  0  0
  5  1  1  0  0  0  0
  6  9  1  0  0  0  0
  7 10  2  0  0  0  0
  8  5  1  0  0  0  0
  9 10  1  0  0  0  0
 10 15  1  0  0  0  0
 11  7  1  0  0  0  0
 12  2  1  0  0  0  0
 13  3  2  0  0  0  0
 14  5  2  0  0  0  0
 15 12  1  0  0  0  0
 16 11  1  0  0  0  0
  4  2  2  0  0  0  0
 11  6  2  0  0  0  0
M  END
>  <Code> (P0217330029)
P0217330029

>  <Number of H-Donors> (P0217330029)
4

>  <Number of H-Acceptors> (P0217330029)
6

>  <Number of Rotatable bonds> (P0217330029)
3

>  <CLogP> (P0217330029)
2.000000000000000e-001

>  <Number of Rings> (P0217330029)
2

>  <PSA> (P0217330029)
1.448000000000000e+002

$$$$

  -ISIS-  11102212342D

 22 25  0  0  0  0  0  0  0  0999 V2000
    7.2750   -7.1792    0.0000 C   0  0  0  0  0  0  0  0  0  0  0  0
    6.8625   -6.4667    0.0000 C   0  0  0  0  0  0  0  0  0  0  0  0
    6.7167   -7.7917    0.0000 S   0  0  0  0  0  0  0  0  0  0  0  0
    6.0542   -6.6417    0.0000 C   0  0  0  0  0  0  0  0  0  0  0  0
    5.9750   -7.4625    0.0000 C   0  0  0  0  0  0  0  0  0  0  0  0
    7.2750   -5.7500    0.0000 C   0  0  0  0  0  0  0  0  0  0  0  0
    8.1042   -7.1792    0.0000 N   0  0  0  0  0  0  0  0  0  0  0  0
    4.7792   -4.3167    0.0000 C   0  0  0  0  0  0  0  0  0  0  0  0
    8.1042   -5.7500    0.0000 N   0  0  0  0  0  0  0  0  0  0  0  0
    5.6125   -4.3167    0.0000 C   0  0  0  0  0  0  0  0  0  0  0  0
    4.2250   -3.7042    0.0000 S   0  0  0  0  0  0  0  0  0  0  0  0
    6.8542   -5.0292    0.0000 S   0  0  0  0  0  0  0  0  0  0  0  0
    8.5167   -6.4667    0.0000 C   0  0  0  0  0  0  0  0  0  0  0  0
    6.0250   -5.0292    0.0000 C   0  0  0  0  0  0  0  0  0  0  0  0
    4.3667   -5.0292    0.0000 C   0  0  0  0  0  0  0  0  0  0  0  0
    3.4792   -4.0375    0.0000 C   0  0  0  0  0  0  0  0  0  0  0  0
    6.0250   -3.6042    0.0000 O   0  0  0  0  0  0  0  0  0  0  0  0
    3.5625   -4.8542    0.0000 C   0  0  0  0  0  0  0  0  0  0  0  0
    5.3792   -6.1625    0.0000 C   0  0  0  0  0  0  0  0  0  0  0  0
    5.2250   -7.8042    0.0000 C   0  0  0  0  0  0  0  0  0  0  0  0
    4.6292   -6.5042    0.0000 C   0  0  0  0  0  0  0  0  0  0  0  0
    4.5542   -7.3292    0.0000 C   0  0  0  0  0  0  0  0  0  0  0  0
  2  1  2  0  0  0  0
  3  1  1  0  0  0  0
  4  2  1  0  0  0  0
  5  3  1  0  0  0  0
  6  2  1  0  0  0  0
  7  1  1  0  0  0  0
  8 10  1  0  0  0  0
  9 13  1  0  0  0  0
 10 14  1  0  0  0  0
 11  8  1  0  0  0  0
 12  6  1  0  0  0  0
 13  7  2  0  0  0  0
 14 12  1  0  0  0  0
 15  8  2  0  0  0  0
 16 11  1  0  0  0  0
 17 10  2  0  0  0  0
 18 15  1  0  0  0  0
 19  4  1  0  0  0  0
 20  5  1  0  0  0  0
 21 19  1  0  0  0  0
 22 20  1  0  0  0  0
  4  5  2  0  0  0  0
  6  9  2  0  0  0  0
 21 22  1  0  0  0  0
 16 18  2  0  0  0  0
M  END
>  <Code> (P0129720405)
P0129720405

>  <Number of H-Donors> (P0129720405)
0

>  <Number of H-Acceptors> (P0129720405)
4

>  <Number of Rotatable bonds> (P0129720405)
4

>  <CLogP> (P0129720405)
4.800000000000000e+000

>  <Number of Rings> (P0129720405)
4

>  <PSA> (P0129720405)
1.246000000000000e+002

$$$$

  -ISIS-  11102212342D

 23 25  0  0  0  0  0  0  0  0999 V2000
    3.3292   -1.4667    0.0000 N   0  0  3  0  0  0  0  0  0  0  0  0
    2.7250   -1.0292    0.0000 C   0  0  0  0  0  0  0  0  0  0  0  0
    2.9542   -0.3167    0.0000 N   0  0  0  0  0  0  0  0  0  0  0  0
    3.9375   -1.0292    0.0000 C   0  0  0  0  0  0  0  0  0  0  0  0
    3.7042   -0.3167    0.0000 N   0  0  0  0  0  0  0  0  0  0  0  0
    4.6500   -1.2542    0.0000 S   0  0  0  0  0  0  0  0  0  0  0  0
    1.9750   -1.0417    0.0000 C   0  0  0  0  0  0  0  0  0  0  0  0
    3.3292   -2.2167    0.0000 C   0  0  0  0  0  0  0  0  0  0  0  0
    5.0542   -0.0250    0.0000 C   0  0  0  0  0  0  0  0  0  0  0  0
    4.3375    0.2083    0.0000 O   0  0  0  0  0  0  0  0  0  0  0  0
    1.6042   -1.6917    0.0000 C   0  0  0  0  0  0  0  0  0  0  0  0
    1.5875   -0.3917    0.0000 C   0  0  0  0  0  0  0  0  0  0  0  0
    5.2042   -0.7542    0.0000 C   0  0  0  0  0  0  0  0  0  0  0  0
    0.4750   -1.0625    0.0000 C   0  0  0  0  0  0  0  0  0  0  0  0
    5.6042    0.4833    0.0000 O   0  0  0  0  0  0  0  0  0  0  0  0
    0.8375   -0.4042    0.0000 C   0  0  0  0  0  0  0  0  0  0  0  0
    0.8542   -1.7042    0.0000 C   0  0  0  0  0  0  0  0  0  0  0  0
   -0.2750   -1.0750    0.0000 Cl  0  0  0  0  0  0  0  0  0  0  0  0
    3.9792   -2.5917    0.0000 C   0  0  0  0  0  0  0  0  0  0  0  0
    2.6792   -2.5917    0.0000 C   0  0  0  0  0  0  0  0  0  0  0  0
    2.6792   -3.3417    0.0000 C   0  0  0  0  0  0  0  0  0  0  0  0
    3.9792   -3.3417    0.0000 C   0  0  0  0  0  0  0  0  0  0  0  0
    3.3292   -3.7167    0.0000 C   0  0  0  0  0  0  0  0  0  0  0  0
  2  1  1  0  0  0  0
  3  2  2  0  0  0  0
  4  1  1  0  0  0  0
  5  4  2  0  0  0  0
  6  4  1  0  0  0  0
  7  2  1  0  0  0  0
  8  1  1  0  0  0  0
  9 13  1  0  0  0  0
 10  9  2  0  0  0  0
 11  7  2  0  0  0  0
 12  7  1  0  0  0  0
 13  6  1  0  0  0  0
 14 16  1  0  0  0  0
 15  9  1  0  0  0  0
 16 12  2  0  0  0  0
 17 11  1  0  0  0  0
 18 14  1  0  0  0  0
 19  8  2  0  0  0  0
 20  8  1  0  0  0  0
 21 20  2  0  0  0  0
 22 19  1  0  0  0  0
 23 21  1  0  0  0  0
  5  3  1  0  0  0  0
 23 22  2  0  0  0  0
 14 17  2  0  0  0  0
M  END
>  <Code> (P0129620400)
P0129620400

>  <Number of H-Donors> (P0129620400)
1

>  <Number of H-Acceptors> (P0129620400)
5

>  <Number of Rotatable bonds> (P0129620400)
5

>  <CLogP> (P0129620400)
4.100000000000000e+000

>  <Number of Rings> (P0129620400)
3

>  <PSA> (P0129620400)
9.330000000000000e+001

$$$$

  -ISIS-  11102212342D

 24 26  0  0  0  0  0  0  0  0999 V2000
    2.4125    0.0708    0.0000 C   0  0  0  0  0  0  0  0  0  0  0  0
    3.0167   -0.3667    0.0000 N   0  0  3  0  0  0  0  0  0  0  0  0
    2.6417    0.7833    0.0000 N   0  0  0  0  0  0  0  0  0  0  0  0
    3.6250    0.0708    0.0000 C   0  0  0  0  0  0  0  0  0  0  0  0
    1.6625    0.0583    0.0000 C   0  0  0  0  0  0  0  0  0  0  0  0
    3.3917    0.7833    0.0000 N   0  0  0  0  0  0  0  0  0  0  0  0
    1.2750    0.7083    0.0000 C   0  0  0  0  0  0  0  0  0  0  0  0
    4.3375   -0.1542    0.0000 S   0  0  0  0  0  0  0  0  0  0  0  0
    1.2917   -0.5917    0.0000 C   0  0  0  0  0  0  0  0  0  0  0  0
    3.0167   -1.1167    0.0000 C   0  0  0  0  0  0  0  0  0  0  0  0
    0.5250    0.6958    0.0000 C   0  0  0  0  0  0  0  0  0  0  0  0
    4.7417    1.0750    0.0000 C   0  0  0  0  0  0  0  0  0  0  0  0
    4.0250    1.3083    0.0000 O   0  0  0  0  0  0  0  0  0  0  0  0
    4.8917    0.3458    0.0000 C   0  0  0  0  0  0  0  0  0  0  0  0
    0.1625    0.0375    0.0000 C   0  0  0  0  0  0  0  0  0  0  0  0
    1.6417    1.3583    0.0000 Cl  0  0  0  0  0  0  0  0  0  0  0  0
    0.5417   -0.6042    0.0000 C   0  0  0  0  0  0  0  0  0  0  0  0
    5.2917    1.5833    0.0000 O   0  0  0  0  0  0  0  0  0  0  0  0
   -0.5875    0.0250    0.0000 Cl  0  0  0  0  0  0  0  0  0  0  0  0
    2.3667   -1.4917    0.0000 C   0  0  0  0  0  0  0  0  0  0  0  0
    3.6667   -1.4917    0.0000 C   0  0  0  0  0  0  0  0  0  0  0  0
    3.6667   -2.2417    0.0000 C   0  0  0  0  0  0  0  0  0  0  0  0
    2.3667   -2.2417    0.0000 C   0  0  0  0  0  0  0  0  0  0  0  0
    3.0167   -2.6167    0.0000 C   0  0  0  0  0  0  0  0  0  0  0  0
  2  1  1  0  0  0  0
  3  1  2  0  0  0  0
  4  2  1  0  0  0  0
  5  1  1  0  0  0  0
  6  3  1  0  0  0  0
  7  5  1  0  0  0  0
  8  4  1  0  0  0  0
  9  5  2  0  0  0  0
 10  2  1  0  0  0  0
 11  7  2  0  0  0  0
 12 14  1  0  0  0  0
 13 12  2  0  0  0  0
 14  8  1  0  0  0  0
 15 17  2  0  0  0  0
 16  7  1  0  0  0  0
 17  9  1  0  0  0  0
 18 12  1  0  0  0  0
 19 15  1  0  0  0  0
 20 10  1  0  0  0  0
 21 10  2  0  0  0  0
 22 21  1  0  0  0  0
 23 20  2  0  0  0  0
 24 22  2  0  0  0  0
  6  4  2  0  0  0  0
 15 11  1  0  0  0  0
 24 23  1  0  0  0  0
M  END
>  <Code> (P0129620380)
P0129620380

>  <Number of H-Donors> (P0129620380)
1

>  <Number of H-Acceptors> (P0129620380)
5

>  <Number of Rotatable bonds> (P0129620380)
5

>  <CLogP> (P0129620380)
4.800000000000000e+000

>  <Number of Rings> (P0129620380)
3

>  <PSA> (P0129620380)
9.330000000000000e+001

$$$$

  -ISIS-  11102212342D

 26 29  0  0  0  0  0  0  0  0999 V2000
    4.1875   -3.9375    0.0000 N   0  0  3  0  0  0  0  0  0  0  0  0
    3.5792   -3.5000    0.0000 C   0  0  0  0  0  0  0  0  0  0  0  0
    3.8125   -2.7875    0.0000 N   0  0  0  0  0  0  0  0  0  0  0  0
    4.7917   -3.5000    0.0000 C   0  0  0  0  0  0  0  0  0  0  0  0
    4.5625   -2.7875    0.0000 N   0  0  0  0  0  0  0  0  0  0  0  0
    7.3792   -3.0167    0.0000 N   0  0  0  0  0  0  0  0  0  0  0  0
    7.9917   -3.4625    0.0000 N   0  0  0  0  0  0  0  0  0  0  0  0
    7.7542   -4.1750    0.0000 C   0  0  0  0  0  0  0  0  0  0  0  0
    6.7750   -3.4625    0.0000 C   0  0  0  0  0  0  0  0  0  0  0  0
    7.0042   -4.1750    0.0000 C   0  0  0  0  0  0  0  0  0  0  0  0
    5.5042   -3.7292    0.0000 S   0  0  0  0  0  0  0  0  0  0  0  0
    2.8292   -3.4792    0.0000 C   0  0  0  0  0  0  0  0  0  0  0  0
    4.1875   -4.6875    0.0000 C   0  0  0  0  0  0  0  0  0  0  0  0
    8.2000   -4.7792    0.0000 O   0  0  0  0  0  0  0  0  0  0  0  0
    6.0625   -3.2292    0.0000 C   0  0  0  0  0  0  0  0  0  0  0  0
    2.4417   -4.1250    0.0000 C   0  0  0  0  0  0  0  0  0  0  0  0
    2.4667   -2.8292    0.0000 C   0  0  0  0  0  0  0  0  0  0  0  0
    1.3292   -3.4542    0.0000 C   0  0  0  0  0  0  0  0  0  0  0  0
    1.7167   -2.8125    0.0000 C   0  0  0  0  0  0  0  0  0  0  0  0
    1.6917   -4.1125    0.0000 C   0  0  0  0  0  0  0  0  0  0  0  0
    0.5792   -3.4417    0.0000 Cl  0  0  0  0  0  0  0  0  0  0  0  0
    4.8375   -5.0625    0.0000 C   0  0  0  0  0  0  0  0  0  0  0  0
    3.5375   -5.0667    0.0000 C   0  0  0  0  0  0  0  0  0  0  0  0
    3.5375   -5.8167    0.0000 C   0  0  0  0  0  0  0  0  0  0  0  0
    4.8375   -5.8125    0.0000 C   0  0  0  0  0  0  0  0  0  0  0  0
    4.1875   -6.1875    0.0000 C   0  0  0  0  0  0  0  0  0  0  0  0
  2  1  1  0  0  0  0
  3  2  2  0  0  0  0
  4  1  1  0  0  0  0
  5  4  2  0  0  0  0
  6  9  2  0  0  0  0
  7  6  1  0  0  0  0
  8 10  1  0  0  0  0
  9 15  1  0  0  0  0
 10  9  1  0  0  0  0
 11  4  1  0  0  0  0
 12  2  1  0  0  0  0
 13  1  1  0  0  0  0
 14  8  2  0  0  0  0
 15 11  1  0  0  0  0
 16 12  2  0  0  0  0
 17 12  1  0  0  0  0
 18 19  1  0  0  0  0
 19 17  2  0  0  0  0
 20 16  1  0  0  0  0
 21 18  1  0  0  0  0
 22 13  2  0  0  0  0
 23 13  1  0  0  0  0
 24 23  2  0  0  0  0
 25 22  1  0  0  0  0
 26 24  1  0  0  0  0
  3  5  1  0  0  0  0
 25 26  2  0  0  0  0
 20 18  2  0  0  0  0
  7  8  1  0  0  0  0
M  END
>  <Code> (P0129620310)
P0129620310

>  <Number of H-Donors> (P0129620310)
1

>  <Number of H-Acceptors> (P0129620310)
5

>  <Number of Rotatable bonds> (P0129620310)
5

>  <CLogP> (P0129620310)
3.700000000000000e+000

>  <Number of Rings> (P0129620310)
4

>  <PSA> (P0129620310)
9.750000000000000e+001

$$$$

  -ISIS-  11102212342D

 26 28  0  0  0  0  0  0  0  0999 V2000
    1.3167   -1.4875    0.0000 C   0  0  0  0  0  0  0  0  0  0  0  0
    0.3667   -0.9500    0.0000 C   0  0  0  0  0  0  0  0  0  0  0  0
   -0.5625   -1.4875    0.0000 C   0  0  0  0  0  0  0  0  0  0  0  0
   -0.5625   -2.5875    0.0000 C   0  0  0  0  0  0  0  0  0  0  0  0
    0.3667   -3.1292    0.0000 N   0  0  0  0  0  0  0  0  0  0  0  0
   -1.5458   -0.9500    0.0000 C   0  0  0  0  0  0  0  0  0  0  0  0
    1.3167   -2.5542    0.0000 C   0  0  0  0  0  0  0  0  0  0  0  0
    2.3000   -0.9792    0.0000 C   0  0  0  0  0  0  0  0  0  0  0  0
   -2.4958   -2.5542    0.0000 C   0  0  3  0  0  0  0  0  0  0  0  0
    0.3667    0.1458    0.0000 C   0  0  0  0  0  0  0  0  0  0  0  0
   -2.4958   -1.4875    0.0000 C   0  0  0  0  0  0  0  0  0  0  0  0
   -1.5458   -3.1292    0.0000 C   0  0  0  0  0  0  0  0  0  0  0  0
   -1.5833    0.1458    0.0000 O   0  0  0  0  0  0  0  0  0  0  0  0
    3.2042   -1.5500    0.0000 O   0  0  0  0  0  0  0  0  0  0  0  0
   -0.5625    0.7000    0.0000 C   0  0  0  0  0  0  0  0  0  0  0  0
    1.3167    0.6625    0.0000 C   0  0  0  0  0  0  0  0  0  0  0  0
    2.3292    0.1458    0.0000 O   0  0  0  0  0  0  0  0  0  0  0  0
    0.3667    2.3208    0.0000 C   0  0  0  0  0  0  0  0  0  0  0  0
    1.3167    1.7833    0.0000 C   0  0  0  0  0  0  0  0  0  0  0  0
   -0.5625    1.7833    0.0000 C   0  0  0  0  0  0  0  0  0  0  0  0
    0.3542    3.4000    0.0000 Br  0  0  0  0  0  0  0  0  0  0  0  0
    2.2667   -3.0542    0.0000 C   0  0  0  0  0  0  0  0  0  0  0  0
   -3.4833   -2.5792    0.0000 C   0  0  0  0  0  0  0  0  0  0  0  0
   -2.8458   -3.5667    0.0000 C   0  0  0  0  0  0  0  0  0  0  0  0
    3.4542    0.8000    0.0000 C   0  0  0  0  0  0  0  0  0  0  0  0
    3.4542    1.8833    0.0000 C   0  0  0  0  0  0  0  0  0  0  0  0
  2  1  1  0  0  0  0
  3  2  2  0  0  0  0
  4  5  2  0  0  0  0
  5  7  1  0  0  0  0
  6  3  1  0  0  0  0
  7  1  2  0  0  0  0
  8  1  1  0  0  0  0
  9 12  1  0  0  0  0
 10  2  1  0  0  0  0
 11  6  1  0  0  0  0
 12  4  1  0  0  0  0
 13  6  2  0  0  0  0
 14  8  2  0  0  0  0
 15 10  2  0  0  0  0
 16 10  1  0  0  0  0
 17  8  1  0  0  0  0
 18 19  1  0  0  0  0
 19 16  2  0  0  0  0
 20 15  1  0  0  0  0
 21 18  1  0  0  0  0
 22  7  1  0  0  0  0
 23  9  1  0  0  0  0
 24  9  1  0  0  0  0
 25 17  1  0  0  0  0
 26 25  1  0  0  0  0
  3  4  1  0  0  0  0
 20 18  2  0  0  0  0
 11  9  1  0  0  0  0
M  END
>  <Code> (P0128660111)
P0128660111

>  <Number of H-Donors> (P0128660111)
0

>  <Number of H-Acceptors> (P0128660111)
4

>  <Number of Rotatable bonds> (P0128660111)
4

>  <CLogP> (P0128660111)
4.400000000000000e+000

>  <Number of Rings> (P0128660111)
3

>  <PSA> (P0128660111)
5.630000000000000e+001

$$$$

  -ISIS-  11102212342D

 18 19  0  0  0  0  0  0  0  0999 V2000
   -2.4833   -0.2667    0.0000 N   0  0  0  0  0  0  0  0  0  0  0  0
   -2.4833   -1.2292    0.0000 C   0  0  0  0  0  0  0  0  0  0  0  0
   -3.3000    0.2125    0.0000 C   0  0  0  0  0  0  0  0  0  0  0  0
   -3.3000   -1.6875    0.0000 N   0  0  0  0  0  0  0  0  0  0  0  0
   -4.1208   -0.2667    0.0000 C   0  0  0  0  0  0  0  0  0  0  0  0
   -1.6625   -2.6500    0.0000 N   0  0  0  0  0  0  0  0  0  0  0  0
   -4.1208   -1.2292    0.0000 C   0  0  0  0  0  0  0  0  0  0  0  0
    0.1000   -2.3500    0.0000 C   0  0  0  0  0  0  0  0  0  0  0  0
   -1.6625   -1.7042    0.0000 N   0  0  0  0  0  0  0  0  0  0  0  0
    1.0167   -2.6375    0.0000 C   0  0  0  0  0  0  0  0  0  0  0  0
   -0.6125   -2.9875    0.0000 C   0  0  0  0  0  0  0  0  0  0  0  0
   -3.3000    1.1500    0.0000 O   0  0  0  0  0  0  0  0  0  0  0  0
    1.0875   -3.5292    0.0000 F   0  0  0  0  0  0  0  0  0  0  0  0
   -0.1000   -1.4167    0.0000 C   0  0  0  0  0  0  0  0  0  0  0  0
   -4.9458   -1.7042    0.0000 C   0  0  0  0  0  0  0  0  0  0  0  0
    1.7292   -1.9875    0.0000 C   0  0  0  0  0  0  0  0  0  0  0  0
    0.6000   -0.7542    0.0000 C   0  0  0  0  0  0  0  0  0  0  0  0
    1.5167   -1.0375    0.0000 C   0  0  0  0  0  0  0  0  0  0  0  0
  2  1  1  0  0  0  0
  3  1  2  0  0  0  0
  4  2  2  0  0  0  0
  5  3  1  0  0  0  0
  6  9  1  0  0  0  0
  7  5  2  0  0  0  0
  8 11  1  0  0  0  0
  9  2  1  0  0  0  0
 10  8  1  0  0  0  0
 11  6  2  0  0  0  0
 12  3  1  0  0  0  0
 13 10  1  0  0  0  0
 14  8  2  0  0  0  0
 15  7  1  0  0  0  0
 16 10  2  0  0  0  0
 17 14  1  0  0  0  0
 18 17  2  0  0  0  0
  7  4  1  0  0  0  0
 16 18  1  0  0  0  0
M  END
>  <Code> (P0125330060)
P0125330060

>  <Number of H-Donors> (P0125330060)
2

>  <Number of H-Acceptors> (P0125330060)
5

>  <Number of Rotatable bonds> (P0125330060)
3

>  <CLogP> (P0125330060)
2.300000000000000e+000

>  <Number of Rings> (P0125330060)
2

>  <PSA> (P0125330060)
7.040000000000001e+001

$$$$

  -ISIS-  11102212342D

 25 29  0  0  0  0  0  0  0  0999 V2000
    1.7375   -0.1292    0.0000 C   0  0  0  0  0  0  0  0  0  0  0  0
    1.8292   -1.1667    0.0000 N   0  0  3  0  0  0  0  0  0  0  0  0
   -0.0333    1.9208    0.0000 C   0  0  0  0  0  0  0  0  0  0  0  0
   -0.8958    1.4208    0.0000 S   0  0  0  0  0  0  0  0  0  0  0  0
    2.7375    0.2833    0.0000 N   0  0  0  0  0  0  0  0  0  0  0  0
    0.8500    0.3833    0.0000 S   0  0  0  0  0  0  0  0  0  0  0  0
    3.4000   -0.4875    0.0000 N   0  0  0  0  0  0  0  0  0  0  0  0
    0.8500    1.4208    0.0000 C   0  0  0  0  0  0  0  0  0  0  0  0
   -1.7708    2.9125    0.0000 C   0  0  0  0  0  0  0  0  0  0  0  0
    2.8792   -1.3792    0.0000 N   0  0  0  0  0  0  0  0  0  0  0  0
   -0.0333    2.9125    0.0000 C   0  0  0  0  0  0  0  0  0  0  0  0
   -1.7708    1.9208    0.0000 C   0  0  0  0  0  0  0  0  0  0  0  0
    1.7292    1.9208    0.0000 N   0  0  0  0  0  0  0  0  0  0  0  0
    0.8500    3.4208    0.0000 N   0  0  0  0  0  0  0  0  0  0  0  0
    1.0500   -1.8500    0.0000 C   0  0  0  0  0  0  0  0  0  0  0  0
    1.7292    2.9125    0.0000 C   0  0  0  0  0  0  0  0  0  0  0  0
   -2.6458    3.4208    0.0000 C   0  0  0  0  0  0  0  0  0  0  0  0
   -2.6458    1.4208    0.0000 C   0  0  0  0  0  0  0  0  0  0  0  0
    0.0667   -1.5167    0.0000 C   0  0  0  0  0  0  0  0  0  0  0  0
    1.2292   -2.8667    0.0000 C   0  0  0  0  0  0  0  0  0  0  0  0
   -3.5208    2.9125    0.0000 C   0  0  0  0  0  0  0  0  0  0  0  0
   -3.5208    1.9208    0.0000 C   0  0  0  0  0  0  0  0  0  0  0  0
   -0.7458   -2.2000    0.0000 C   0  0  0  0  0  0  0  0  0  0  0  0
    0.4500   -3.5667    0.0000 C   0  0  0  0  0  0  0  0  0  0  0  0
   -0.5500   -3.2292    0.0000 C   0  0  0  0  0  0  0  0  0  0  0  0
  2  1  1  0  0  0  0
  3  8  1  0  0  0  0
  4  3  1  0  0  0  0
  5  1  2  0  0  0  0
  6  1  1  0  0  0  0
  7  5  1  0  0  0  0
  8  6  1  0  0  0  0
  9 11  1  0  0  0  0
 10  2  1  0  0  0  0
 11  3  2  0  0  0  0
 12  4  1  0  0  0  0
 13  8  2  0  0  0  0
 14 16  2  0  0  0  0
 15  2  1  0  0  0  0
 16 13  1  0  0  0  0
 17  9  1  0  0  0  0
 18 12  1  0  0  0  0
 19 15  2  0  0  0  0
 20 15  1  0  0  0  0
 21 17  1  0  0  0  0
 22 18  1  0  0  0  0
 23 19  1  0  0  0  0
 24 20  2  0  0  0  0
 25 24  1  0  0  0  0
  7 10  2  0  0  0  0
 11 14  1  0  0  0  0
 12  9  2  0  0  0  0
 25 23  2  0  0  0  0
 22 21  1  0  0  0  0
M  END
>  <Code> (P0125250007)
P0125250007

>  <Number of H-Donors> (P0125250007)
0

>  <Number of H-Acceptors> (P0125250007)
6

>  <Number of Rotatable bonds> (P0125250007)
3

>  <CLogP> (P0125250007)
4.800000000000000e+000

>  <Number of Rings> (P0125250007)
5

>  <PSA> (P0125250007)
1.229000000000000e+002

$$$$

  -ISIS-  11102212342D

 21 24  0  0  0  0  0  0  0  0999 V2000
   -3.1333   -0.1542    0.0000 N   0  0  3  0  0  0  0  0  0  0  0  0
   -1.4333    0.6000    0.0000 C   0  0  0  0  0  0  0  0  0  0  0  0
   -2.0125   -0.4042    0.0000 C   0  0  0  0  0  0  0  0  0  0  0  0
   -2.1958    1.4625    0.0000 N   0  0  0  0  0  0  0  0  0  0  0  0
   -3.2500    1.0000    0.0000 C   0  0  0  0  0  0  0  0  0  0  0  0
    1.4792   -0.4542    0.0000 C   0  0  0  0  0  0  0  0  0  0  0  0
    2.1292   -1.3875    0.0000 N   0  0  0  0  0  0  0  0  0  0  0  0
    2.1292    0.4708    0.0000 O   0  0  0  0  0  0  0  0  0  0  0  0
    3.2292   -1.0375    0.0000 C   0  0  0  0  0  0  0  0  0  0  0  0
    3.2292    0.1208    0.0000 C   0  0  0  0  0  0  0  0  0  0  0  0
   -4.0958   -0.8167    0.0000 C   0  0  0  0  0  0  0  0  0  0  0  0
   -0.2625    0.5958    0.0000 C   0  0  0  0  0  0  0  0  0  0  0  0
    0.3042   -0.4167    0.0000 S   0  0  0  0  0  0  0  0  0  0  0  0
   -4.3125    1.4958    0.0000 C   0  0  0  0  0  0  0  0  0  0  0  0
   -1.5625   -1.4542    0.0000 Br  0  0  0  0  0  0  0  0  0  0  0  0
   -5.1583   -0.3375    0.0000 C   0  0  0  0  0  0  0  0  0  0  0  0
   -5.2708    0.8125    0.0000 C   0  0  0  0  0  0  0  0  0  0  0  0
    4.2292   -1.6292    0.0000 C   0  0  0  0  0  0  0  0  0  0  0  0
    4.2292    0.6958    0.0000 C   0  0  0  0  0  0  0  0  0  0  0  0
    5.2375   -1.0375    0.0000 C   0  0  0  0  0  0  0  0  0  0  0  0
    5.2375    0.1208    0.0000 C   0  0  0  0  0  0  0  0  0  0  0  0
  2  3  2  0  0  0  0
  3  1  1  0  0  0  0
  4  5  2  0  0  0  0
  5  1  1  0  0  0  0
  6 13  1  0  0  0  0
  7  6  2  0  0  0  0
  8  6  1  0  0  0  0
  9  7  1  0  0  0  0
 10  8  1  0  0  0  0
 11  1  1  0  0  0  0
 12  2  1  0  0  0  0
 13 12  1  0  0  0  0
 14  5  1  0  0  0  0
 15  3  1  0  0  0  0
 16 11  2  0  0  0  0
 17 16  1  0  0  0  0
 18  9  2  0  0  0  0
 19 10  2  0  0  0  0
 20 18  1  0  0  0  0
 21 19  1  0  0  0  0
  2  4  1  0  0  0  0
 17 14  2  0  0  0  0
 10  9  1  0  0  0  0
 20 21  2  0  0  0  0
M  END
>  <Code> (P0125200018)
P0125200018

>  <Number of H-Donors> (P0125200018)
0

>  <Number of H-Acceptors> (P0125200018)
3

>  <Number of Rotatable bonds> (P0125200018)
3

>  <CLogP> (P0125200018)
4.000000000000000e+000

>  <Number of Rings> (P0125200018)
4

>  <PSA> (P0125200018)
6.859999999999998e+001

$$$$

  -ISIS-  11102212342D

 33 36  0  0  0  0  0  0  0  0999 V2000
    2.2875   -0.4375    0.0000 S   0  0  3  0  0  0  0  0  0  0  0  0
    1.5292   -0.9500    0.0000 C   0  0  0  0  0  0  0  0  0  0  0  0
    1.8000   -0.4500    0.0000 N   0  0  0  0  0  0  0  0  0  0  0  0
    1.8375   -1.4542    0.0000 N   0  0  0  0  0  0  0  0  0  0  0  0
    0.9792   -0.9500    0.0000 C   0  0  0  0  0  0  0  0  0  0  0  0
    0.6375   -1.4542    0.0000 N   0  0  0  0  0  0  0  0  0  0  0  0
    2.8042   -0.4375    0.0000 C   0  0  0  0  0  0  0  0  0  0  0  0
    2.3000   -0.9500    0.0000 O   0  0  0  0  0  0  0  0  0  0  0  0
    2.3000    0.1333    0.0000 O   0  0  0  0  0  0  0  0  0  0  0  0
    1.5500   -1.9792    0.0000 C   0  0  0  0  0  0  0  0  0  0  0  0
    0.9667   -2.0000    0.0000 C   0  0  0  0  0  0  0  0  0  0  0  0
    4.6792    0.1708    0.0000 C   0  0  0  0  0  0  0  0  0  0  0  0
    4.4667   -0.3542    0.0000 N   0  0  0  0  0  0  0  0  0  0  0  0
    0.7167   -0.4667    0.0000 N   0  0  0  0  0  0  0  0  0  0  0  0
    5.2500    0.2833    0.0000 O   0  0  0  0  0  0  0  0  0  0  0  0
    3.1042   -0.9375    0.0000 C   0  0  0  0  0  0  0  0  0  0  0  0
    3.0875    0.0833    0.0000 C   0  0  0  0  0  0  0  0  0  0  0  0
    3.9875   -0.4042    0.0000 C   0  0  0  0  0  0  0  0  0  0  0  0
    3.7167    0.0833    0.0000 C   0  0  0  0  0  0  0  0  0  0  0  0
    3.7042   -0.9167    0.0000 C   0  0  0  0  0  0  0  0  0  0  0  0
    0.1500   -0.4500    0.0000 C   0  0  0  0  0  0  0  0  0  0  0  0
   -0.7833   -1.1167    0.0000 C   0  0  0  0  0  0  0  0  0  0  0  0
    4.3667    0.6333    0.0000 C   0  0  0  0  0  0  0  0  0  0  0  0
    1.8375   -2.5000    0.0000 C   0  0  0  0  0  0  0  0  0  0  0  0
    0.6667   -2.5042    0.0000 C   0  0  0  0  0  0  0  0  0  0  0  0
   -0.2125   -1.1000    0.0000 C   0  0  0  0  0  0  0  0  0  0  0  0
   -1.0833   -1.6375    0.0000 C   0  0  0  0  0  0  0  0  0  0  0  0
   -1.1125   -0.6167    0.0000 C   0  0  0  0  0  0  0  0  0  0  0  0
    0.9667   -3.0042    0.0000 C   0  0  0  0  0  0  0  0  0  0  0  0
    1.5375   -3.0042    0.0000 C   0  0  0  0  0  0  0  0  0  0  0  0
   -1.6833   -1.6542    0.0000 C   0  0  0  0  0  0  0  0  0  0  0  0
   -1.7000   -0.6167    0.0000 C   0  0  0  0  0  0  0  0  0  0  0  0
   -1.9958   -1.1500    0.0000 C   0  0  0  0  0  0  0  0  0  0  0  0
  2  3  1  0  0  0  0
  3  1  1  0  0  0  0
  4  2  1  0  0  0  0
  5  2  2  0  0  0  0
  6  5  1  0  0  0  0
  7  1  1  0  0  0  0
  8  1  2  0  0  0  0
  9  1  2  0  0  0  0
 10  4  2  0  0  0  0
 11  6  2  0  0  0  0
 12 13  1  0  0  0  0
 13 18  1  0  0  0  0
 14  5  1  0  0  0  0
 15 12  2  0  0  0  0
 16  7  2  0  0  0  0
 17  7  1  0  0  0  0
 18 19  1  0  0  0  0
 19 17  2  0  0  0  0
 20 16  1  0  0  0  0
 21 14  1  0  0  0  0
 22 26  1  0  0  0  0
 23 12  1  0  0  0  0
 24 10  1  0  0  0  0
 25 11  1  0  0  0  0
 26 21  1  0  0  0  0
 27 22  2  0  0  0  0
 28 22  1  0  0  0  0
 29 25  2  0  0  0  0
 30 24  2  0  0  0  0
 31 27  1  0  0  0  0
 32 28  2  0  0  0  0
 33 32  1  0  0  0  0
 20 18  2  0  0  0  0
 10 11  1  0  0  0  0
 30 29  1  0  0  0  0
 33 31  2  0  0  0  0
M  END
>  <Code> (P0124040115)
P0124040115

>  <Number of H-Donors> (P0124040115)
3

>  <Number of H-Acceptors> (P0124040115)
6

>  <Number of Rotatable bonds> (P0124040115)
8

>  <CLogP> (P0124040115)
3.700000000000000e+000

>  <Number of Rings> (P0124040115)
4

>  <PSA> (P0124040115)
1.215000000000000e+002

$$$$

  -ISIS-  11102212342D

 20 23  0  0  0  0  0  0  0  0999 V2000
    0.2667   -0.3667    0.0000 C   0  0  0  0  0  0  0  0  0  0  0  0
    0.5500   -1.2667    0.0000 C   0  0  0  0  0  0  0  0  0  0  0  0
    0.9292    0.3458    0.0000 C   0  0  0  0  0  0  0  0  0  0  0  0
   -0.2208   -1.8042    0.0000 S   0  0  0  0  0  0  0  0  0  0  0  0
   -0.6708   -0.3667    0.0000 C   0  0  0  0  0  0  0  0  0  0  0  0
   -0.9708   -1.2542    0.0000 C   0  0  0  0  0  0  0  0  0  0  0  0
    1.4875   -1.4667    0.0000 N   0  0  0  0  0  0  0  0  0  0  0  0
    1.8500    0.1458    0.0000 N   0  0  0  0  0  0  0  0  0  0  0  0
    0.6500    1.2625    0.0000 N   0  0  0  0  0  0  0  0  0  0  0  0
    2.1292   -0.7667    0.0000 C   0  0  0  0  0  0  0  0  0  0  0  0
   -0.2708    1.4833    0.0000 C   0  0  3  0  0  0  0  0  0  0  0  0
   -1.3000    0.3208    0.0000 C   0  0  0  0  0  0  0  0  0  0  0  0
   -1.8958   -1.4542    0.0000 C   0  0  0  0  0  0  0  0  0  0  0  0
   -0.5125    2.3958    0.0000 C   0  0  0  0  0  0  0  0  0  0  0  0
   -0.9208    0.8125    0.0000 C   0  0  0  0  0  0  0  0  0  0  0  0
   -2.2458    0.1458    0.0000 C   0  0  0  0  0  0  0  0  0  0  0  0
   -2.5333   -0.7292    0.0000 C   0  0  0  0  0  0  0  0  0  0  0  0
   -1.4458    2.6458    0.0000 C   0  0  0  0  0  0  0  0  0  0  0  0
   -1.8500    1.0500    0.0000 C   0  0  0  0  0  0  0  0  0  0  0  0
   -2.0958    1.9625    0.0000 C   0  0  0  0  0  0  0  0  0  0  0  0
  2  1  2  0  0  0  0
  3  1  1  0  0  0  0
  4  2  1  0  0  0  0
  5  1  1  0  0  0  0
  6  5  2  0  0  0  0
  7  2  1  0  0  0  0
  8  3  2  0  0  0  0
  9  3  1  0  0  0  0
 10  8  1  0  0  0  0
 11  9  1  0  0  0  0
 12  5  1  0  0  0  0
 13  6  1  0  0  0  0
 14 11  1  0  0  0  0
 15 11  1  0  0  0  0
 16 12  1  0  0  0  0
 17 16  1  0  0  0  0
 18 14  1  0  0  0  0
 19 15  1  0  0  0  0
 20 19  1  0  0  0  0
  4  6  1  0  0  0  0
  7 10  2  0  0  0  0
 17 13  1  0  0  0  0
 20 18  1  0  0  0  0
M  END
>  <Code> (P0123750098)
P0123750098

>  <Number of H-Donors> (P0123750098)
1

>  <Number of H-Acceptors> (P0123750098)
3

>  <Number of Rotatable bonds> (P0123750098)
2

>  <CLogP> (P0123750098)
4.200000000000000e+000

>  <Number of Rings> (P0123750098)
4

>  <PSA> (P0123750098)
6.609999999999998e+001

$$$$

  -ISIS-  11102212342D

 25 28  0  0  0  0  0  0  0  0999 V2000
    4.9000   -5.0417    0.0000 S   0  0  3  0  0  0  0  0  0  0  0  0
    6.1500   -1.7625    0.0000 C   0  0  0  0  0  0  0  0  0  0  0  0
    5.3292   -1.6792    0.0000 N   0  0  0  0  0  0  0  0  0  0  0  0
    4.9000   -4.2167    0.0000 C   0  0  0  0  0  0  0  0  0  0  0  0
    5.6125   -2.9792    0.0000 C   0  0  0  0  0  0  0  0  0  0  0  0
    4.9917   -2.4250    0.0000 C   0  0  0  0  0  0  0  0  0  0  0  0
    5.6125   -3.8042    0.0000 C   0  0  0  0  0  0  0  0  0  0  0  0
    6.3250   -2.5667    0.0000 C   0  0  0  0  0  0  0  0  0  0  0  0
    4.9000   -5.8667    0.0000 N   0  0  0  0  0  0  0  0  0  0  0  0
    5.7250   -5.0417    0.0000 O   0  0  0  0  0  0  0  0  0  0  0  0
    4.0750   -5.0417    0.0000 O   0  0  0  0  0  0  0  0  0  0  0  0
    4.1792   -3.8042    0.0000 C   0  0  0  0  0  0  0  0  0  0  0  0
    4.2167   -2.6750    0.0000 C   0  0  0  0  0  0  0  0  0  0  0  0
    6.7000   -1.1417    0.0000 O   0  0  0  0  0  0  0  0  0  0  0  0
    4.1875   -6.2792    0.0000 C   0  0  0  0  0  0  0  0  0  0  0  0
    6.3250   -4.2167    0.0000 C   0  0  0  0  0  0  0  0  0  0  0  0
    2.7542   -7.1125    0.0000 C   0  0  0  0  0  0  0  0  0  0  0  0
    3.4750   -5.8667    0.0000 C   0  0  0  0  0  0  0  0  0  0  0  0
    4.1875   -7.1125    0.0000 C   0  0  0  0  0  0  0  0  0  0  0  0
    7.0417   -2.9792    0.0000 C   0  0  0  0  0  0  0  0  0  0  0  0
    3.4750   -7.5250    0.0000 C   0  0  0  0  0  0  0  0  0  0  0  0
    2.7542   -6.2792    0.0000 C   0  0  0  0  0  0  0  0  0  0  0  0
    2.0375   -7.5292    0.0000 O   0  0  0  0  0  0  0  0  0  0  0  0
    7.0417   -3.8042    0.0000 C   0  0  0  0  0  0  0  0  0  0  0  0
    2.0417   -8.3625    0.0000 C   0  0  0  0  0  0  0  0  0  0  0  0
  2  8  1  0  0  0  0
  3  6  1  0  0  0  0
  4  1  1  0  0  0  0
  5  7  2  0  0  0  0
  6 13  2  0  0  0  0
  7  4  1  0  0  0  0
  8  5  1  0  0  0  0
  9  1  1  0  0  0  0
 10  1  2  0  0  0  0
 11  1  2  0  0  0  0
 12  4  2  0  0  0  0
 13 12  1  0  0  0  0
 14  2  2  0  0  0  0
 15  9  1  0  0  0  0
 16  7  1  0  0  0  0
 17 21  2  0  0  0  0
 18 15  1  0  0  0  0
 19 15  2  0  0  0  0
 20 24  1  0  0  0  0
 21 19  1  0  0  0  0
 22 18  2  0  0  0  0
 23 17  1  0  0  0  0
 24 16  2  0  0  0  0
 25 23  1  0  0  0  0
 17 22  1  0  0  0  0
  5  6  1  0  0  0  0
  3  2  1  0  0  0  0
  8 20  2  0  0  0  0
M  END
>  <Code> (P0118671829)
P0118671829

>  <Number of H-Donors> (P0118671829)
2

>  <Number of H-Acceptors> (P0118671829)
4

>  <Number of Rotatable bonds> (P0118671829)
4

>  <CLogP> (P0118671829)
2.200000000000000e+000

>  <Number of Rings> (P0118671829)
4

>  <PSA> (P0118671829)
9.290000000000001e+001

$$$$

  -ISIS-  11102212342D

 21 22  0  0  0  0  0  0  0  0999 V2000
    4.6667   -3.5292    0.0000 C   0  0  0  0  0  0  0  0  0  0  0  0
    5.3792   -3.9500    0.0000 C   0  0  3  0  0  0  0  0  0  0  0  0
    3.9500   -3.9500    0.0000 C   0  0  0  0  0  0  0  0  0  0  0  0
    4.6542   -5.1875    0.0000 C   0  0  0  0  0  0  0  0  0  0  0  0
    3.9500   -4.7667    0.0000 N   0  0  0  0  0  0  0  0  0  0  0  0
    5.3792   -4.7667    0.0000 N   0  0  0  0  0  0  0  0  0  0  0  0
    4.6542   -2.7042    0.0000 C   0  0  0  0  0  0  0  0  0  0  0  0
    6.1000   -3.5292    0.0000 C   0  0  0  0  0  0  0  0  0  0  0  0
    4.6542   -6.0042    0.0000 O   0  0  0  0  0  0  0  0  0  0  0  0
    6.8167   -3.9375    0.0000 C   0  0  0  0  0  0  0  0  0  0  0  0
    3.9500   -2.3000    0.0000 O   0  0  0  0  0  0  0  0  0  0  0  0
    5.3792   -2.3000    0.0000 O   0  0  0  0  0  0  0  0  0  0  0  0
    7.5375   -3.5292    0.0000 C   0  0  0  0  0  0  0  0  0  0  0  0
    3.2292   -3.5292    0.0000 C   0  0  0  0  0  0  0  0  0  0  0  0
    6.0875   -2.7000    0.0000 C   0  0  0  0  0  0  0  0  0  0  0  0
    8.2500   -3.9292    0.0000 O   0  0  0  0  0  0  0  0  0  0  0  0
    6.8042   -2.2792    0.0000 C   0  0  0  0  0  0  0  0  0  0  0  0
    7.5292   -2.6875    0.0000 C   0  0  0  0  0  0  0  0  0  0  0  0
    5.3792   -1.4667    0.0000 C   0  0  0  0  0  0  0  0  0  0  0  0
    8.9542   -3.5167    0.0000 C   0  0  0  0  0  0  0  0  0  0  0  0
    6.0875   -1.0542    0.0000 C   0  0  0  0  0  0  0  0  0  0  0  0
  2  1  1  0  0  0  0
  3  1  2  0  0  0  0
  4  5  1  0  0  0  0
  5  3  1  0  0  0  0
  6  2  1  0  0  0  0
  7  1  1  0  0  0  0
  8  2  1  0  0  0  0
  9  4  2  0  0  0  0
 10  8  2  0  0  0  0
 11  7  2  0  0  0  0
 12  7  1  0  0  0  0
 13 10  1  0  0  0  0
 14  3  1  0  0  0  0
 15  8  1  0  0  0  0
 16 13  1  0  0  0  0
 17 15  2  0  0  0  0
 18 17  1  0  0  0  0
 19 12  1  0  0  0  0
 20 16  1  0  0  0  0
 21 19  1  0  0  0  0
  6  4  1  0  0  0  0
 18 13  2  0  0  0  0
M  END
>  <Code> (P0117380610)
P0117380610

>  <Number of H-Donors> (P0117380610)
2

>  <Number of H-Acceptors> (P0117380610)
4

>  <Number of Rotatable bonds> (P0117380610)
5

>  <CLogP> (P0117380610)
1.400000000000000e+000

>  <Number of Rings> (P0117380610)
2

>  <PSA> (P0117380610)
7.670000000000000e+001

$$$$

  -ISIS-  11102212342D

 29 32  0  0  0  0  0  0  0  0999 V2000
   -1.5125    2.0708    0.0000 C   0  0  0  0  0  0  0  0  0  0  0  0
    1.4667   -0.9542    0.0000 C   0  0  0  0  0  0  0  0  0  0  0  0
   -0.7625    0.7958    0.0000 C   0  0  0  0  0  0  0  0  0  0  0  0
   -0.0208   -0.9542    0.0000 C   0  0  0  0  0  0  0  0  0  0  0  0
    0.7167   -0.5167    0.0000 C   0  0  0  0  0  0  0  0  0  0  0  0
   -1.5125    1.2208    0.0000 C   0  0  0  0  0  0  0  0  0  0  0  0
   -0.7625   -0.5375    0.0000 C   0  0  0  0  0  0  0  0  0  0  0  0
    1.4542   -1.8292    0.0000 C   0  0  0  0  0  0  0  0  0  0  0  0
   -0.7625    2.4958    0.0000 C   0  0  0  0  0  0  0  0  0  0  0  0
   -2.2500    2.5208    0.0000 C   0  0  0  0  0  0  0  0  0  0  0  0
    2.2292   -0.5375    0.0000 C   0  0  0  0  0  0  0  0  0  0  0  0
   -0.0125    1.2208    0.0000 C   0  0  0  0  0  0  0  0  0  0  0  0
   -0.0208   -1.8292    0.0000 C   0  0  0  0  0  0  0  0  0  0  0  0
   -0.0125    2.0708    0.0000 C   0  0  0  0  0  0  0  0  0  0  0  0
    0.7042   -2.2667    0.0000 C   0  0  0  0  0  0  0  0  0  0  0  0
   -3.0000    2.0958    0.0000 O   0  0  0  0  0  0  0  0  0  0  0  0
    2.9792   -0.9542    0.0000 O   0  0  0  0  0  0  0  0  0  0  0  0
   -2.2500    0.7958    0.0000 O   0  0  0  0  0  0  0  0  0  0  0  0
    0.7167    0.3458    0.0000 O   0  0  0  0  0  0  0  0  0  0  0  0
    2.2292    0.3333    0.0000 O   0  0  0  0  0  0  0  0  0  0  0  0
   -2.2500    3.3833    0.0000 O   0  0  0  0  0  0  0  0  0  0  0  0
    0.7375    0.7958    0.0000 C   0  0  0  0  0  0  0  0  0  0  0  0
   -0.7708   -2.2667    0.0000 C   0  0  0  0  0  0  0  0  0  0  0  0
    0.7000   -3.1292    0.0000 C   0  0  0  0  0  0  0  0  0  0  0  0
    0.7375    2.4958    0.0000 C   0  0  0  0  0  0  0  0  0  0  0  0
   -0.7833   -3.1375    0.0000 C   0  0  0  0  0  0  0  0  0  0  0  0
    1.4875    1.2208    0.0000 C   0  0  0  0  0  0  0  0  0  0  0  0
    1.4875    2.0708    0.0000 C   0  0  0  0  0  0  0  0  0  0  0  0
   -0.0458   -3.5667    0.0000 C   0  0  0  0  0  0  0  0  0  0  0  0
  2  5  1  0  0  0  0
  3  6  2  0  0  0  0
  4  7  1  0  0  0  0
  5  4  2  0  0  0  0
  6  1  1  0  0  0  0
  7  3  1  0  0  0  0
  8 15  1  0  0  0  0
  9  1  2  0  0  0  0
 10  1  1  0  0  0  0
 11  2  1  0  0  0  0
 12 14  1  0  0  0  0
 13  4  1  0  0  0  0
 14  9  1  0  0  0  0
 15 13  1  0  0  0  0
 16 10  2  0  0  0  0
 17 11  2  0  0  0  0
 18  6  1  0  0  0  0
 19  5  1  0  0  0  0
 20 11  1  0  0  0  0
 21 10  1  0  0  0  0
 22 12  2  0  0  0  0
 23 13  2  0  0  0  0
 24 15  2  0  0  0  0
 25 14  2  0  0  0  0
 26 23  1  0  0  0  0
 27 28  2  0  0  0  0
 28 25  1  0  0  0  0
 29 26  2  0  0  0  0
 12  3  1  0  0  0  0
 22 27  1  0  0  0  0
  8  2  2  0  0  0  0
 24 29  1  0  0  0  0
M  END
>  <Code> (P0117380082)
P0117380082

>  <Number of H-Donors> (P0117380082)
4

>  <Number of H-Acceptors> (P0117380082)
6

>  <Number of Rotatable bonds> (P0117380082)
4

>  <CLogP> (P0117380082)
4.400000000000000e+000

>  <Number of Rings> (P0117380082)
4

>  <PSA> (P0117380082)
1.151000000000000e+002

$$$$

  -ISIS-  11102212342D

 22 25  0  0  0  0  0  0  0  0999 V2000
    2.8500    0.5333    0.0000 N   0  0  0  0  0  0  0  0  0  0  0  0
   -1.0500    2.9958    0.0000 N   0  0  0  0  0  0  0  0  0  0  0  0
   -0.6333    2.3958    0.0000 C   0  0  0  0  0  0  0  0  0  0  0  0
    2.3500    1.0958    0.0000 C   0  0  0  0  0  0  0  0  0  0  0  0
   -1.0500    1.7708    0.0000 O   0  0  0  0  0  0  0  0  0  0  0  0
    2.7292    1.7500    0.0000 O   0  0  0  0  0  0  0  0  0  0  0  0
    3.5292    0.8333    0.0000 C   0  0  0  0  0  0  0  0  0  0  0  0
   -1.7708    2.7500    0.0000 C   0  0  0  0  0  0  0  0  0  0  0  0
   -1.7708    2.0208    0.0000 C   0  0  0  0  0  0  0  0  0  0  0  0
    3.4500    1.5958    0.0000 C   0  0  0  0  0  0  0  0  0  0  0  0
    1.6042    1.0958    0.0000 S   0  0  0  0  0  0  0  0  0  0  0  0
    0.1042    2.3958    0.0000 S   0  0  0  0  0  0  0  0  0  0  0  0
    4.2042    0.5333    0.0000 C   0  0  0  0  0  0  0  0  0  0  0  0
   -2.4125    3.1333    0.0000 C   0  0  0  0  0  0  0  0  0  0  0  0
    4.0500    2.0333    0.0000 C   0  0  0  0  0  0  0  0  0  0  0  0
   -2.4125    1.6333    0.0000 C   0  0  0  0  0  0  0  0  0  0  0  0
    0.4875    1.7500    0.0000 C   0  0  0  0  0  0  0  0  0  0  0  0
    1.2292    1.7500    0.0000 C   0  0  0  0  0  0  0  0  0  0  0  0
    4.8042    0.9708    0.0000 C   0  0  0  0  0  0  0  0  0  0  0  0
    4.7292    1.7333    0.0000 C   0  0  0  0  0  0  0  0  0  0  0  0
   -3.0500    2.7500    0.0000 C   0  0  0  0  0  0  0  0  0  0  0  0
   -3.0500    2.0208    0.0000 C   0  0  0  0  0  0  0  0  0  0  0  0
  2  3  2  0  0  0  0
  3 12  1  0  0  0  0
  4  1  2  0  0  0  0
  5  3  1  0  0  0  0
  6  4  1  0  0  0  0
  7  1  1  0  0  0  0
  8  2  1  0  0  0  0
  9  5  1  0  0  0  0
 10  7  2  0  0  0  0
 11  4  1  0  0  0  0
 12 17  1  0  0  0  0
 13  7  1  0  0  0  0
 14  8  1  0  0  0  0
 15 10  1  0  0  0  0
 16  9  1  0  0  0  0
 17 18  1  0  0  0  0
 18 11  1  0  0  0  0
 19 13  2  0  0  0  0
 20 19  1  0  0  0  0
 21 14  2  0  0  0  0
 22 16  2  0  0  0  0
  6 10  1  0  0  0  0
 20 15  2  0  0  0  0
  9  8  2  0  0  0  0
 22 21  1  0  0  0  0
M  END
>  <Code> (P0111770013)
P0111770013

>  <Number of H-Donors> (P0111770013)
0

>  <Number of H-Acceptors> (P0111770013)
4

>  <Number of Rotatable bonds> (P0111770013)
5

>  <CLogP> (P0111770013)
4.700000000000000e+000

>  <Number of Rings> (P0111770013)
4

>  <PSA> (P0111770013)
1.027000000000000e+002

$$$$

  -ISIS-  11102212342D

 22 24  0  0  0  0  0  0  0  0999 V2000
   -2.1208   -1.9292    0.0000 N   0  0  0  0  0  0  0  0  0  0  0  0
   -2.1208   -0.0292    0.0000 N   0  0  0  0  0  0  0  0  0  0  0  0
   -1.3000   -0.5042    0.0000 C   0  0  0  0  0  0  0  0  0  0  0  0
   -1.3000   -1.4500    0.0000 C   0  0  0  0  0  0  0  0  0  0  0  0
    0.3375   -0.5042    0.0000 C   0  0  0  0  0  0  0  0  0  0  0  0
    0.3375   -1.4500    0.0000 C   0  0  0  0  0  0  0  0  0  0  0  0
   -0.4833   -0.0292    0.0000 C   0  0  0  0  0  0  0  0  0  0  0  0
   -0.4833   -1.9292    0.0000 C   0  0  0  0  0  0  0  0  0  0  0  0
    1.1542   -0.0292    0.0000 N   0  0  0  0  0  0  0  0  0  0  0  0
    1.1792   -1.9292    0.0000 N   0  0  0  0  0  0  0  0  0  0  0  0
   -2.9208   -1.4500    0.0000 C   0  0  0  0  0  0  0  0  0  0  0  0
   -2.9208   -0.5042    0.0000 C   0  0  0  0  0  0  0  0  0  0  0  0
    1.1542    0.9333    0.0000 C   0  0  0  0  0  0  0  0  0  0  0  0
    1.1792   -2.8667    0.0000 C   0  0  0  0  0  0  0  0  0  0  0  0
    0.3375    1.3958    0.0000 O   0  0  0  0  0  0  0  0  0  0  0  0
    2.0000   -3.3292    0.0000 O   0  0  0  0  0  0  0  0  0  0  0  0
    1.9792    1.3958    0.0000 C   0  0  0  0  0  0  0  0  0  0  0  0
    0.3542   -3.3292    0.0000 C   0  0  0  0  0  0  0  0  0  0  0  0
   -3.7458   -0.0292    0.0000 C   0  0  0  0  0  0  0  0  0  0  0  0
   -3.7458   -1.9292    0.0000 C   0  0  0  0  0  0  0  0  0  0  0  0
   -4.5625   -1.4500    0.0000 C   0  0  0  0  0  0  0  0  0  0  0  0
   -4.5625   -0.5042    0.0000 C   0  0  0  0  0  0  0  0  0  0  0  0
  2 12  1  0  0  0  0
  3  4  1  0  0  0  0
  4  1  2  0  0  0  0
  5  6  1  0  0  0  0
  6  8  2  0  0  0  0
  7  3  1  0  0  0  0
  8  4  1  0  0  0  0
  9  5  1  0  0  0  0
 10  6  1  0  0  0  0
 11  1  1  0  0  0  0
 12 11  2  0  0  0  0
 13  9  1  0  0  0  0
 14 10  1  0  0  0  0
 15 13  2  0  0  0  0
 16 14  2  0  0  0  0
 17 13  1  0  0  0  0
 18 14  1  0  0  0  0
 19 12  1  0  0  0  0
 20 11  1  0  0  0  0
 21 20  2  0  0  0  0
 22 21  1  0  0  0  0
  3  2  2  0  0  0  0
  5  7  2  0  0  0  0
 22 19  2  0  0  0  0
M  END
>  <Code> (P0111070308)
P0111070308

>  <Number of H-Donors> (P0111070308)
2

>  <Number of H-Acceptors> (P0111070308)
4

>  <Number of Rotatable bonds> (P0111070308)
2

>  <CLogP> (P0111070308)
1.300000000000000e+000

>  <Number of Rings> (P0111070308)
3

>  <PSA> (P0111070308)
8.400000000000000e+001

$$$$

  -ISIS-  11102212342D

 21 23  0  0  0  0  0  0  0  0999 V2000
   -1.3958   -0.5500    0.0000 S   0  0  3  0  0  0  0  0  0  0  0  0
    3.5042   -0.8792    0.0000 N   0  0  0  0  0  0  0  0  0  0  0  0
    3.5042    0.9000    0.0000 S   0  0  0  0  0  0  0  0  0  0  0  0
    2.4417   -0.5500    0.0000 C   0  0  0  0  0  0  0  0  0  0  0  0
    4.1292    0.0333    0.0000 C   0  0  0  0  0  0  0  0  0  0  0  0
   -0.4333   -1.1167    0.0000 N   0  0  0  0  0  0  0  0  0  0  0  0
    2.4417    0.5625    0.0000 C   0  0  0  0  0  0  0  0  0  0  0  0
   -2.3500    0.0333    0.0000 C   0  0  0  0  0  0  0  0  0  0  0  0
    1.5167   -1.1000    0.0000 C   0  0  0  0  0  0  0  0  0  0  0  0
   -1.9708   -1.5042    0.0000 O   0  0  0  0  0  0  0  0  0  0  0  0
   -0.8458    0.4125    0.0000 O   0  0  0  0  0  0  0  0  0  0  0  0
    0.5500   -0.5500    0.0000 C   0  0  0  0  0  0  0  0  0  0  0  0
    1.5167    1.1125    0.0000 C   0  0  0  0  0  0  0  0  0  0  0  0
   -2.3500    1.1458    0.0000 C   0  0  0  0  0  0  0  0  0  0  0  0
   -3.3125   -0.5500    0.0000 C   0  0  0  0  0  0  0  0  0  0  0  0
    0.5500    0.5625    0.0000 C   0  0  0  0  0  0  0  0  0  0  0  0
   -3.2958    1.6958    0.0000 C   0  0  0  0  0  0  0  0  0  0  0  0
   -4.2708    0.0333    0.0000 C   0  0  0  0  0  0  0  0  0  0  0  0
   -4.2708    1.1458    0.0000 C   0  0  0  0  0  0  0  0  0  0  0  0
    5.2375    0.0333    0.0000 C   0  0  0  0  0  0  0  0  0  0  0  0
   -5.2708    1.6958    0.0000 C   0  0  0  0  0  0  0  0  0  0  0  0
  2  4  1  0  0  0  0
  3  7  1  0  0  0  0
  4  9  1  0  0  0  0
  5  2  2  0  0  0  0
  6  1  1  0  0  0  0
  7 13  1  0  0  0  0
  8  1  1  0  0  0  0
  9 12  2  0  0  0  0
 10  1  2  0  0  0  0
 11  1  2  0  0  0  0
 12  6  1  0  0  0  0
 13 16  2  0  0  0  0
 14  8  2  0  0  0  0
 15  8  1  0  0  0  0
 16 12  1  0  0  0  0
 17 14  1  0  0  0  0
 18 15  2  0  0  0  0
 19 18  1  0  0  0  0
 20  5  1  0  0  0  0
 21 19  1  0  0  0  0
 19 17  2  0  0  0  0
  4  7  2  0  0  0  0
  5  3  1  0  0  0  0
M  END
>  <Code> (P0111050269)
P0111050269

>  <Number of H-Donors> (P0111050269)
1

>  <Number of H-Acceptors> (P0111050269)
3

>  <Number of Rotatable bonds> (P0111050269)
3

>  <CLogP> (P0111050269)
3.100000000000000e+000

>  <Number of Rings> (P0111050269)
3

>  <PSA> (P0111050269)
9.570000000000000e+001

$$$$

  -ISIS-  11102212342D

 18 20  0  0  0  0  0  0  0  0999 V2000
    0.7542   -1.3417    0.0000 C   0  0  0  0  0  0  0  0  0  0  0  0
    0.0500   -1.7542    0.0000 C   0  0  0  0  0  0  0  0  0  0  0  0
    1.4750   -1.7500    0.0000 N   0  0  0  0  0  0  0  0  0  0  0  0
    0.7542   -0.5167    0.0000 N   0  0  0  0  0  0  0  0  0  0  0  0
    0.0500   -2.5792    0.0000 C   0  0  0  0  0  0  0  0  0  0  0  0
    0.7667   -2.9917    0.0000 N   0  0  0  0  0  0  0  0  0  0  0  0
    1.4792   -2.5750    0.0000 C   0  0  0  0  0  0  0  0  0  0  0  0
   -0.6750   -1.3417    0.0000 C   0  0  0  0  0  0  0  0  0  0  0  0
   -0.6708   -3.0000    0.0000 C   0  0  0  0  0  0  0  0  0  0  0  0
   -1.3833   -1.7542    0.0000 C   0  0  0  0  0  0  0  0  0  0  0  0
    0.7500    0.3083    0.0000 C   0  0  3  0  0  0  0  0  0  0  0  0
   -1.3833   -2.5875    0.0000 C   0  0  0  0  0  0  0  0  0  0  0  0
   -2.1000   -1.3500    0.0000 C   0  0  0  0  0  0  0  0  0  0  0  0
    0.0292    0.7208    0.0000 C   0  0  0  0  0  0  0  0  0  0  0  0
    1.4542    0.7250    0.0000 C   0  0  0  0  0  0  0  0  0  0  0  0
    1.4542    1.5458    0.0000 C   0  0  0  0  0  0  0  0  0  0  0  0
    0.0250    1.5458    0.0000 C   0  0  0  0  0  0  0  0  0  0  0  0
    0.7417    1.9583    0.0000 C   0  0  0  0  0  0  0  0  0  0  0  0
  2  1  1  0  0  0  0
  3  1  2  0  0  0  0
  4  1  1  0  0  0  0
  5  2  1  0  0  0  0
  6  7  2  0  0  0  0
  7  3  1  0  0  0  0
  8  2  2  0  0  0  0
  9  5  2  0  0  0  0
 10  8  1  0  0  0  0
 11  4  1  0  0  0  0
 12 10  2  0  0  0  0
 13 10  1  0  0  0  0
 14 11  1  0  0  0  0
 15 11  1  0  0  0  0
 16 15  1  0  0  0  0
 17 14  1  0  0  0  0
 18 16  1  0  0  0  0
  5  6  1  0  0  0  0
 12  9  1  0  0  0  0
 18 17  1  0  0  0  0
M  END
>  <Code> (P0109790056)
P0109790056

>  <Number of H-Donors> (P0109790056)
1

>  <Number of H-Acceptors> (P0109790056)
3

>  <Number of Rotatable bonds> (P0109790056)
2

>  <CLogP> (P0109790056)
3.600000000000000e+000

>  <Number of Rings> (P0109790056)
3

>  <PSA> (P0109790056)
3.780000000000000e+001

$$$$

  -ISIS-  11102212342D

 23 25  0  0  0  0  0  0  0  0999 V2000
    3.3750   -0.8375    0.0000 C   0  0  0  0  0  0  0  0  0  0  0  0
    3.1167   -1.6250    0.0000 C   0  0  0  0  0  0  0  0  0  0  0  0
    2.0417   -0.8375    0.0000 N   0  0  3  0  0  0  0  0  0  0  0  0
    2.7042   -0.3542    0.0000 C   0  0  0  0  0  0  0  0  0  0  0  0
    2.2917   -1.6250    0.0000 C   0  0  0  0  0  0  0  0  0  0  0  0
    4.1625   -0.5792    0.0000 N   0  0  0  0  0  0  0  0  0  0  0  0
    1.2542   -0.5792    0.0000 C   0  0  0  0  0  0  0  0  0  0  0  0
    4.7667   -1.1375    0.0000 C   0  0  0  0  0  0  0  0  0  0  0  0
    2.7042    0.4708    0.0000 O   0  0  0  0  0  0  0  0  0  0  0  0
    1.8042   -2.2917    0.0000 O   0  0  0  0  0  0  0  0  0  0  0  0
    3.6042   -2.2917    0.0000 Cl  0  0  0  0  0  0  0  0  0  0  0  0
    5.5542   -0.8792    0.0000 C   0  0  0  0  0  0  0  0  0  0  0  0
    1.0875    0.2208    0.0000 C   0  0  0  0  0  0  0  0  0  0  0  0
    0.6500   -1.1375    0.0000 C   0  0  0  0  0  0  0  0  0  0  0  0
   -0.3083   -0.0750    0.0000 C   0  0  0  0  0  0  0  0  0  0  0  0
    5.7167   -0.0750    0.0000 F   0  0  0  0  0  0  0  0  0  0  0  0
    0.3042    0.4750    0.0000 C   0  0  0  0  0  0  0  0  0  0  0  0
   -0.1333   -0.8875    0.0000 C   0  0  0  0  0  0  0  0  0  0  0  0
   -1.0958    0.1750    0.0000 Br  0  0  0  0  0  0  0  0  0  0  0  0
    4.5917   -1.9417    0.0000 C   0  0  0  0  0  0  0  0  0  0  0  0
    6.1667   -1.4292    0.0000 C   0  0  0  0  0  0  0  0  0  0  0  0
    5.2042   -2.4917    0.0000 C   0  0  0  0  0  0  0  0  0  0  0  0
    5.9917   -2.2417    0.0000 C   0  0  0  0  0  0  0  0  0  0  0  0
  2  1  2  0  0  0  0
  3  4  1  0  0  0  0
  4  1  1  0  0  0  0
  5  2  1  0  0  0  0
  6  1  1  0  0  0  0
  7  3  1  0  0  0  0
  8  6  1  0  0  0  0
  9  4  2  0  0  0  0
 10  5  2  0  0  0  0
 11  2  1  0  0  0  0
 12  8  1  0  0  0  0
 13  7  2  0  0  0  0
 14  7  1  0  0  0  0
 15 18  1  0  0  0  0
 16 12  1  0  0  0  0
 17 13  1  0  0  0  0
 18 14  2  0  0  0  0
 19 15  1  0  0  0  0
 20  8  2  0  0  0  0
 21 12  2  0  0  0  0
 22 20  1  0  0  0  0
 23 22  2  0  0  0  0
  3  5  1  0  0  0  0
 21 23  1  0  0  0  0
 17 15  2  0  0  0  0
M  END
>  <Code> (P0109750107)
P0109750107

>  <Number of H-Donors> (P0109750107)
1

>  <Number of H-Acceptors> (P0109750107)
3

>  <Number of Rotatable bonds> (P0109750107)
3

>  <CLogP> (P0109750107)
3.800000000000000e+000

>  <Number of Rings> (P0109750107)
3

>  <PSA> (P0109750107)
4.940000000000001e+001

$$$$

  -ISIS-  11102212342D

 22 22  0  0  0  0  0  0  0  0999 V2000
    5.7667   -5.3625    0.0000 C   0  0  0  0  0  0  0  0  0  0  0  0
    6.4542   -4.9375    0.0000 C   0  0  0  0  0  0  0  0  0  0  0  0
    6.4667   -6.6000    0.0000 N   0  0  0  0  0  0  0  0  0  0  0  0
    5.7792   -6.1875    0.0000 C   0  0  0  0  0  0  0  0  0  0  0  0
    7.1542   -5.3500    0.0000 C   0  0  0  0  0  0  0  0  0  0  0  0
    6.4542   -4.1167    0.0000 N   0  0  0  0  0  0  0  0  0  0  0  0
    7.1667   -6.1792    0.0000 C   0  0  0  0  0  0  0  0  0  0  0  0
    5.0417   -4.9375    0.0000 C   0  0  0  0  0  0  0  0  0  0  0  0
    6.4542   -1.6625    0.0000 N   0  0  0  0  0  0  0  0  0  0  0  0
    5.0667   -6.6000    0.0000 C   0  0  0  0  0  0  0  0  0  0  0  0
    5.7542   -2.8875    0.0000 C   0  0  0  0  0  0  0  0  0  0  0  0
    5.7542   -3.7125    0.0000 C   0  0  0  0  0  0  0  0  0  0  0  0
    4.3292   -5.3625    0.0000 C   0  0  0  0  0  0  0  0  0  0  0  0
    4.3792   -6.1875    0.0000 C   0  0  0  0  0  0  0  0  0  0  0  0
    7.2292   -4.6375    0.0000 Cl  0  0  0  0  0  0  0  0  0  0  0  0
    7.4292   -1.8000    0.0000 Cl  0  0  0  0  0  0  0  0  0  0  0  0
    6.4542   -2.4792    0.0000 C   0  0  0  0  0  0  0  0  0  0  0  0
    5.7542   -1.2500    0.0000 C   0  0  0  0  0  0  0  0  0  0  0  0
    7.8667   -6.6000    0.0000 C   0  0  0  0  0  0  0  0  0  0  0  0
    5.0292   -2.4792    0.0000 C   0  0  0  0  0  0  0  0  0  0  0  0
    3.6042   -4.9625    0.0000 C   0  0  0  0  0  0  0  0  0  0  0  0
    5.0292   -1.6667    0.0000 C   0  0  0  0  0  0  0  0  0  0  0  0
  2  1  1  0  0  0  0
  3  4  1  0  0  0  0
  4  1  1  0  0  0  0
  5  2  2  0  0  0  0
  6  2  1  0  0  0  0
  7  3  2  0  0  0  0
  8  1  2  0  0  0  0
  9 17  1  0  0  0  0
 10  4  2  0  0  0  0
 11 12  1  0  0  0  0
 12  6  1  0  0  0  0
 13  8  1  0  0  0  0
 14 13  2  0  0  0  0
 17 11  2  0  0  0  0
 18 22  1  0  0  0  0
 19  7  1  0  0  0  0
 20 11  1  0  0  0  0
 21 13  1  0  0  0  0
 22 20  2  0  0  0  0
 10 14  1  0  0  0  0
  5  7  1  0  0  0  0
  9 18  2  0  0  0  0
M  END
>  <Code> (P0109200069)
P0109200069

>  <Saltdata> (P0109200069)
2 HCl

>  <Number of H-Donors> (P0109200069)
1

>  <Number of H-Acceptors> (P0109200069)
3

>  <Number of Rotatable bonds> (P0109200069)
3

>  <CLogP> (P0109200069)
3.800000000000000e+000

>  <Number of Rings> (P0109200069)
3

>  <PSA> (P0109200069)
3.780000000000000e+001

$$$$

  -ISIS-  11102212342D

 16 17  0  0  0  0  0  0  0  0999 V2000
   -3.8625   -0.8167    0.0000 N   0  0  0  0  0  0  0  0  0  0  0  0
   -1.3000   -0.8167    0.0000 C   0  0  0  0  0  0  0  0  0  0  0  0
   -2.5958   -0.0875    0.0000 C   0  0  0  0  0  0  0  0  0  0  0  0
   -1.3000   -2.2875    0.0000 N   0  0  0  0  0  0  0  0  0  0  0  0
   -3.8625   -2.2875    0.0000 C   0  0  0  0  0  0  0  0  0  0  0  0
    3.9167   -0.6667    0.0000 N   0  0  0  0  0  0  0  0  0  0  0  0
    2.7500    1.4333    0.0000 C   0  0  0  0  0  0  0  0  0  0  0  0
   -2.5958   -3.0375    0.0000 N   0  0  0  0  0  0  0  0  0  0  0  0
    4.1875    1.7125    0.0000 C   0  0  0  0  0  0  0  0  0  0  0  0
    4.9375    0.4458    0.0000 N   0  0  0  0  0  0  0  0  0  0  0  0
    2.5667   -0.0667    0.0000 C   0  0  0  0  0  0  0  0  0  0  0  0
    0.0000   -0.0667    0.0000 S   0  0  0  0  0  0  0  0  0  0  0  0
   -2.5958    1.4000    0.0000 O   0  0  0  0  0  0  0  0  0  0  0  0
   -5.1625   -3.0542    0.0000 O   0  0  0  0  0  0  0  0  0  0  0  0
    1.2875   -0.8167    0.0000 C   0  0  0  0  0  0  0  0  0  0  0  0
    4.7792    3.0625    0.0000 O   0  0  0  0  0  0  0  0  0  0  0  0
  2  3  1  0  0  0  0
  3  1  1  0  0  0  0
  4  8  1  0  0  0  0
  5  1  1  0  0  0  0
  6 11  2  0  0  0  0
  7 11  1  0  0  0  0
  8  5  1  0  0  0  0
  9  7  2  0  0  0  0
 10  6  1  0  0  0  0
 11 15  1  0  0  0  0
 12  2  1  0  0  0  0
 13  3  2  0  0  0  0
 14  5  2  0  0  0  0
 15 12  1  0  0  0  0
 16  9  1  0  0  0  0
  2  4  2  0  0  0  0
 10  9  1  0  0  0  0
M  END
>  <Code> (P0107180044)
P0107180044

>  <Number of H-Donors> (P0107180044)
4

>  <Number of H-Acceptors> (P0107180044)
6

>  <Number of Rotatable bonds> (P0107180044)
3

>  <CLogP> (P0107180044)
-1.000000000000000e-001

>  <Number of Rings> (P0107180044)
2

>  <PSA> (P0107180044)
1.448000000000000e+002

$$$$

  -ISIS-  11102212342D

 25 29  0  0  0  0  0  0  0  0999 V2000
   -1.2208    0.1583    0.0000 C   0  0  0  0  0  0  0  0  0  0  0  0
   -1.7625    1.0625    0.0000 N   0  0  3  0  0  0  0  0  0  0  0  0
   -0.1625   -1.6792    0.0000 C   0  0  0  0  0  0  0  0  0  0  0  0
    0.3417   -0.7792    0.0000 C   0  0  0  0  0  0  0  0  0  0  0  0
    0.3750   -2.6125    0.0000 C   0  0  0  0  0  0  0  0  0  0  0  0
   -1.9458   -0.6292    0.0000 N   0  0  0  0  0  0  0  0  0  0  0  0
   -0.1625    0.1583    0.0000 S   0  0  0  0  0  0  0  0  0  0  0  0
   -2.8750   -0.2000    0.0000 N   0  0  0  0  0  0  0  0  0  0  0  0
   -2.7958    0.8208    0.0000 N   0  0  0  0  0  0  0  0  0  0  0  0
   -0.3458   -3.4000    0.0000 S   0  0  0  0  0  0  0  0  0  0  0  0
   -1.1958   -1.9167    0.0000 C   0  0  0  0  0  0  0  0  0  0  0  0
    1.4292   -2.5875    0.0000 N   0  0  0  0  0  0  0  0  0  0  0  0
    1.4042   -0.7417    0.0000 N   0  0  0  0  0  0  0  0  0  0  0  0
   -1.2833   -2.9667    0.0000 C   0  0  0  0  0  0  0  0  0  0  0  0
    1.9500   -1.6792    0.0000 C   0  0  0  0  0  0  0  0  0  0  0  0
   -1.0458    1.8583    0.0000 C   0  0  0  0  0  0  0  0  0  0  0  0
   -2.1958   -1.5292    0.0000 C   0  0  0  0  0  0  0  0  0  0  0  0
   -2.3000   -3.2167    0.0000 C   0  0  0  0  0  0  0  0  0  0  0  0
   -2.8500   -2.3417    0.0000 C   0  0  0  0  0  0  0  0  0  0  0  0
    3.0042   -1.6792    0.0000 C   0  0  0  0  0  0  0  0  0  0  0  0
   -1.3708    2.8208    0.0000 C   0  0  0  0  0  0  0  0  0  0  0  0
   -0.0083    1.6333    0.0000 C   0  0  0  0  0  0  0  0  0  0  0  0
   -0.6833    3.5958    0.0000 C   0  0  0  0  0  0  0  0  0  0  0  0
    0.6750    2.4000    0.0000 C   0  0  0  0  0  0  0  0  0  0  0  0
    0.3417    3.3958    0.0000 C   0  0  0  0  0  0  0  0  0  0  0  0
  2  1  1  0  0  0  0
  3  4  1  0  0  0  0
  4  7  1  0  0  0  0
  5  3  2  0  0  0  0
  6  1  2  0  0  0  0
  7  1  1  0  0  0  0
  8  6  1  0  0  0  0
  9  2  1  0  0  0  0
 10  5  1  0  0  0  0
 11  3  1  0  0  0  0
 12 15  2  0  0  0  0
 13  4  2  0  0  0  0
 14 11  2  0  0  0  0
 15 13  1  0  0  0  0
 16  2  1  0  0  0  0
 17 11  1  0  0  0  0
 18 14  1  0  0  0  0
 19 17  1  0  0  0  0
 20 15  1  0  0  0  0
 21 16  2  0  0  0  0
 22 16  1  0  0  0  0
 23 21  1  0  0  0  0
 24 22  2  0  0  0  0
 25 24  1  0  0  0  0
  8  9  2  0  0  0  0
 12  5  1  0  0  0  0
 10 14  1  0  0  0  0
 25 23  2  0  0  0  0
 19 18  1  0  0  0  0
M  END
>  <Code> (P0107070179)
P0107070179

>  <Number of H-Donors> (P0107070179)
0

>  <Number of H-Acceptors> (P0107070179)
6

>  <Number of Rotatable bonds> (P0107070179)
3

>  <CLogP> (P0107070179)
4.100000000000000e+000

>  <Number of Rings> (P0107070179)
5

>  <PSA> (P0107070179)
1.229000000000000e+002

$$$$

  -ISIS-  11102212342D

 24 27  0  0  0  0  0  0  0  0999 V2000
    4.1917   -7.6667    0.0000 N   0  0  3  0  0  0  0  0  0  0  0  0
    9.9792   -7.0917    0.0000 N   0  0  3  0  0  0  0  0  0  0  0  0
    6.1042   -7.0042    0.0000 C   0  0  0  0  0  0  0  0  0  0  0  0
    5.3792   -8.0542    0.0000 C   0  0  0  0  0  0  0  0  0  0  0  0
    9.2792   -8.1042    0.0000 C   0  0  0  0  0  0  0  0  0  0  0  0
    4.1917   -6.3917    0.0000 C   0  0  0  0  0  0  0  0  0  0  0  0
    5.3792   -6.0042    0.0000 N   0  0  0  0  0  0  0  0  0  0  0  0
   10.0542   -9.1167    0.0000 N   0  0  0  0  0  0  0  0  0  0  0  0
   11.2292   -8.6792    0.0000 N   0  0  0  0  0  0  0  0  0  0  0  0
   11.1792   -7.4042    0.0000 N   0  0  0  0  0  0  0  0  0  0  0  0
    3.0917   -8.2917    0.0000 C   0  0  0  0  0  0  0  0  0  0  0  0
    3.0917   -5.7542    0.0000 C   0  0  0  0  0  0  0  0  0  0  0  0
    8.0167   -8.1042    0.0000 S   0  0  0  0  0  0  0  0  0  0  0  0
    1.9792   -7.6542    0.0000 C   0  0  0  0  0  0  0  0  0  0  0  0
    7.3792   -7.0042    0.0000 C   0  0  0  0  0  0  0  0  0  0  0  0
    1.9917   -6.3917    0.0000 C   0  0  0  0  0  0  0  0  0  0  0  0
    9.5417   -5.9042    0.0000 C   0  0  0  0  0  0  0  0  0  0  0  0
    5.7542   -9.2417    0.0000 Br  0  0  0  0  0  0  0  0  0  0  0  0
    0.9042   -8.2917    0.0000 Cl  0  0  0  0  0  0  0  0  0  0  0  0
   10.3542   -4.9417    0.0000 C   0  0  0  0  0  0  0  0  0  0  0  0
    8.2667   -5.7167    0.0000 C   0  0  0  0  0  0  0  0  0  0  0  0
    7.8417   -4.5292    0.0000 C   0  0  0  0  0  0  0  0  0  0  0  0
    9.8792   -3.7292    0.0000 C   0  0  0  0  0  0  0  0  0  0  0  0
    8.6542   -3.5292    0.0000 C   0  0  0  0  0  0  0  0  0  0  0  0
  2  5  1  0  0  0  0
  3  4  2  0  0  0  0
  4  1  1  0  0  0  0
  5 13  1  0  0  0  0
  6  1  1  0  0  0  0
  7  6  2  0  0  0  0
  8  5  2  0  0  0  0
  9  8  1  0  0  0  0
 10  2  1  0  0  0  0
 11  1  1  0  0  0  0
 12  6  1  0  0  0  0
 13 15  1  0  0  0  0
 14 11  2  0  0  0  0
 15  3  1  0  0  0  0
 16 14  1  0  0  0  0
 17  2  1  0  0  0  0
 18  4  1  0  0  0  0
 19 14  1  0  0  0  0
 20 17  2  0  0  0  0
 21 17  1  0  0  0  0
 22 21  2  0  0  0  0
 23 20  1  0  0  0  0
 24 22  1  0  0  0  0
  3  7  1  0  0  0  0
 16 12  2  0  0  0  0
 10  9  2  0  0  0  0
 24 23  2  0  0  0  0
M  END
>  <Code> (P0105410016)
P0105410016

>  <Number of H-Donors> (P0105410016)
0

>  <Number of H-Acceptors> (P0105410016)
5

>  <Number of Rotatable bonds> (P0105410016)
4

>  <CLogP> (P0105410016)
4.000000000000000e+000

>  <Number of Rings> (P0105410016)
4

>  <PSA> (P0105410016)
8.619999999999999e+001

$$$$

  -ISIS-  11102212342D

 24 27  0  0  0  0  0  0  0  0999 V2000
    0.9542    0.9375    0.0000 N   0  0  3  0  0  0  0  0  0  0  0  0
   -0.0375    1.5083    0.0000 C   0  0  0  0  0  0  0  0  0  0  0  0
    1.9500    2.6583    0.0000 C   0  0  0  0  0  0  0  0  0  0  0  0
    1.9500    1.5125    0.0000 C   0  0  0  0  0  0  0  0  0  0  0  0
   -0.0375    2.6583    0.0000 C   0  0  0  0  0  0  0  0  0  0  0  0
   -1.0208    0.9458    0.0000 N   0  0  0  0  0  0  0  0  0  0  0  0
   -1.0333    3.2333    0.0000 N   0  0  0  0  0  0  0  0  0  0  0  0
    0.9542   -0.2000    0.0000 N   0  0  0  0  0  0  0  0  0  0  0  0
    2.7500    3.4583    0.0000 C   0  0  0  0  0  0  0  0  0  0  0  0
    3.8792    3.4583    0.0000 N   0  0  0  0  0  0  0  0  0  0  0  0
   -2.0083    1.5000    0.0000 C   0  0  0  0  0  0  0  0  0  0  0  0
   -2.0083    2.6458    0.0000 C   0  0  0  0  0  0  0  0  0  0  0  0
    2.9292    0.9458    0.0000 N   0  0  0  0  0  0  0  0  0  0  0  0
   -0.0208   -0.7625    0.0000 C   0  0  0  0  0  0  0  0  0  0  0  0
   -0.0125   -1.8792    0.0000 C   0  0  0  0  0  0  0  0  0  0  0  0
   -0.9833   -2.4542    0.0000 C   0  0  0  0  0  0  0  0  0  0  0  0
   -1.9750   -0.7542    0.0000 C   0  0  0  0  0  0  0  0  0  0  0  0
   -0.9958   -0.1917    0.0000 C   0  0  0  0  0  0  0  0  0  0  0  0
   -2.9958    0.9458    0.0000 C   0  0  0  0  0  0  0  0  0  0  0  0
   -2.9958    3.2125    0.0000 C   0  0  0  0  0  0  0  0  0  0  0  0
   -1.9750   -1.8917    0.0000 C   0  0  0  0  0  0  0  0  0  0  0  0
   -0.9833   -3.5917    0.0000 C   0  0  0  0  0  0  0  0  0  0  0  0
   -3.9708    1.5083    0.0000 C   0  0  0  0  0  0  0  0  0  0  0  0
   -3.9708    2.6458    0.0000 C   0  0  0  0  0  0  0  0  0  0  0  0
  2  1  1  0  0  0  0
  3  4  2  0  0  0  0
  4  1  1  0  0  0  0
  5  2  1  0  0  0  0
  6  2  2  0  0  0  0
  7  5  2  0  0  0  0
  8  1  1  0  0  0  0
  9  3  1  0  0  0  0
 10  9  3  0  0  0  0
 11  6  1  0  0  0  0
 12 11  1  0  0  0  0
 13  4  1  0  0  0  0
 14  8  1  0  0  0  0
 15 14  1  0  0  0  0
 16 15  2  0  0  0  0
 17 18  1  0  0  0  0
 18 14  2  0  0  0  0
 19 11  2  0  0  0  0
 20 12  2  0  0  0  0
 21 17  2  0  0  0  0
 22 16  1  0  0  0  0
 23 19  1  0  0  0  0
 24 23  2  0  0  0  0
  5  3  1  0  0  0  0
  7 12  1  0  0  0  0
 16 21  1  0  0  0  0
 20 24  1  0  0  0  0
M  END
>  <Code> (P0104650004)
P0104650004

>  <Number of H-Donors> (P0104650004)
2

>  <Number of H-Acceptors> (P0104650004)
5

>  <Number of Rotatable bonds> (P0104650004)
2

>  <CLogP> (P0104650004)
3.800000000000000e+000

>  <Number of Rings> (P0104650004)
4

>  <PSA> (P0104650004)
9.260000000000002e+001

$$$$
